version 2
run Join-37-20130429-12:50:16-17679
attr configname Join
attr datetime 20130429-12:50:16
attr experiment "\"Join\""
attr inifile omnetpp.ini
attr iterationvars $0=256
attr iterationvars2 "$0=256, $repetition=7"
attr measurement $0=256
attr network Network
attr processid 17679
attr repetition 7
attr replication #7
attr resultdir results
attr runnumber 37
attr seedset 37

scalar Network.dyn_peer[0] 	lookupHopsSig:last 	11
scalar Network.dyn_peer[0] 	lookupHopsSig:max 	23
scalar Network.dyn_peer[0] 	lookupHopsSig:min 	0
scalar Network.dyn_peer[0] 	lookupHopsSig:mean 	7.0535672239228
scalar Network.dyn_peer[0] 	lookupHopsSig:timeavg 	7.1778949345055
scalar Network.dyn_peer[0] 	LookupFailuresSig:max 	-nan
scalar Network.dyn_peer[0] 	LookupFailuresSig:timeavg 	-nan
