version 2
run Join-42-20130429-12:50:29-17679
attr configname Join
attr datetime 20130429-12:50:29
attr experiment "\"Join\""
attr inifile omnetpp.ini
attr iterationvars $0=512
attr iterationvars2 "$0=512, $repetition=2"
attr measurement $0=512
attr network Network
attr processid 17679
attr repetition 2
attr replication #2
attr resultdir results
attr runnumber 42
attr seedset 42

scalar Network.dyn_peer[0] 	lookupHopsSig:last 	6
scalar Network.dyn_peer[0] 	lookupHopsSig:max 	44
scalar Network.dyn_peer[0] 	lookupHopsSig:min 	0
scalar Network.dyn_peer[0] 	lookupHopsSig:mean 	9.2902824858757
scalar Network.dyn_peer[0] 	lookupHopsSig:timeavg 	9.6732887078748
scalar Network.dyn_peer[0] 	LookupFailuresSig:max 	-nan
scalar Network.dyn_peer[0] 	LookupFailuresSig:timeavg 	-nan
