version 2
run Join-77-20130429-12:53:43-17679
attr configname Join
attr datetime 20130429-12:53:43
attr experiment "\"Join\""
attr inifile omnetpp.ini
attr iterationvars $0=4096
attr iterationvars2 "$0=4096, $repetition=7"
attr measurement $0=4096
attr network Network
attr processid 17679
attr repetition 7
attr replication #7
attr resultdir results
attr runnumber 77
attr seedset 77

scalar Network.dyn_peer[0] 	lookupHopsSig:last 	31
scalar Network.dyn_peer[0] 	lookupHopsSig:max 	117
scalar Network.dyn_peer[0] 	lookupHopsSig:min 	0
scalar Network.dyn_peer[0] 	lookupHopsSig:mean 	26.16418072945
scalar Network.dyn_peer[0] 	lookupHopsSig:timeavg 	26.836760559826
scalar Network.dyn_peer[0] 	LookupFailuresSig:max 	-nan
scalar Network.dyn_peer[0] 	LookupFailuresSig:timeavg 	-nan
