version 2
run Join-44-20130429-12:50:34-17679
attr configname Join
attr datetime 20130429-12:50:34
attr experiment "\"Join\""
attr inifile omnetpp.ini
attr iterationvars $0=512
attr iterationvars2 "$0=512, $repetition=4"
attr measurement $0=512
attr network Network
attr processid 17679
attr repetition 4
attr replication #4
attr resultdir results
attr runnumber 44
attr seedset 44

scalar Network.dyn_peer[0] 	lookupHopsSig:last 	8
scalar Network.dyn_peer[0] 	lookupHopsSig:max 	37
scalar Network.dyn_peer[0] 	lookupHopsSig:min 	1
scalar Network.dyn_peer[0] 	lookupHopsSig:mean 	9.4289547233091
scalar Network.dyn_peer[0] 	lookupHopsSig:timeavg 	9.5886700332682
scalar Network.dyn_peer[0] 	LookupFailuresSig:max 	-nan
scalar Network.dyn_peer[0] 	LookupFailuresSig:timeavg 	-nan
