version 2
run Join-48-20130429-12:50:45-17679
attr configname Join
attr datetime 20130429-12:50:45
attr experiment "\"Join\""
attr inifile omnetpp.ini
attr iterationvars $0=512
attr iterationvars2 "$0=512, $repetition=8"
attr measurement $0=512
attr network Network
attr processid 17679
attr repetition 8
attr replication #8
attr resultdir results
attr runnumber 48
attr seedset 48

scalar Network.dyn_peer[0] 	lookupHopsSig:last 	8
scalar Network.dyn_peer[0] 	lookupHopsSig:max 	39
scalar Network.dyn_peer[0] 	lookupHopsSig:min 	1
scalar Network.dyn_peer[0] 	lookupHopsSig:mean 	10.503305322129
scalar Network.dyn_peer[0] 	lookupHopsSig:timeavg 	10.865221673653
scalar Network.dyn_peer[0] 	LookupFailuresSig:max 	-nan
scalar Network.dyn_peer[0] 	LookupFailuresSig:timeavg 	-nan
