version 2
run Join-93-20130429-13:04:06-17679
attr configname Join
attr datetime 20130429-13:04:06
attr experiment "\"Join\""
attr inifile omnetpp.ini
attr iterationvars $0=16384
attr iterationvars2 "$0=16384, $repetition=3"
attr measurement $0=16384
attr network Network
attr processid 17679
attr repetition 3
attr replication #3
attr resultdir results
attr runnumber 93
attr seedset 93

scalar Network.dyn_peer[0] 	lookupHopsSig:last 	24
scalar Network.dyn_peer[0] 	lookupHopsSig:max 	229
scalar Network.dyn_peer[0] 	lookupHopsSig:min 	1
scalar Network.dyn_peer[0] 	lookupHopsSig:mean 	52.976978569913
scalar Network.dyn_peer[0] 	lookupHopsSig:timeavg 	53.746162929485
scalar Network.dyn_peer[0] 	LookupFailuresSig:max 	-nan
scalar Network.dyn_peer[0] 	LookupFailuresSig:timeavg 	-nan
