version 2
run Join-23-20130429-12:49:48-17679
attr configname Join
attr datetime 20130429-12:49:48
attr experiment "\"Join\""
attr inifile omnetpp.ini
attr iterationvars $0=128
attr iterationvars2 "$0=128, $repetition=3"
attr measurement $0=128
attr network Network
attr processid 17679
attr repetition 3
attr replication #3
attr resultdir results
attr runnumber 23
attr seedset 23

scalar Network.dyn_peer[0] 	lookupHopsSig:last 	9
scalar Network.dyn_peer[0] 	lookupHopsSig:max 	16
scalar Network.dyn_peer[0] 	lookupHopsSig:min 	0
scalar Network.dyn_peer[0] 	lookupHopsSig:mean 	4.600876125578
scalar Network.dyn_peer[0] 	lookupHopsSig:timeavg 	4.6705597615355
scalar Network.dyn_peer[0] 	LookupFailuresSig:max 	-nan
scalar Network.dyn_peer[0] 	LookupFailuresSig:timeavg 	-nan
