version 2
run Join-47-20130429-12:50:42-17679
attr configname Join
attr datetime 20130429-12:50:42
attr experiment "\"Join\""
attr inifile omnetpp.ini
attr iterationvars $0=512
attr iterationvars2 "$0=512, $repetition=7"
attr measurement $0=512
attr network Network
attr processid 17679
attr repetition 7
attr replication #7
attr resultdir results
attr runnumber 47
attr seedset 47

scalar Network.dyn_peer[0] 	lookupHopsSig:last 	8
scalar Network.dyn_peer[0] 	lookupHopsSig:max 	39
scalar Network.dyn_peer[0] 	lookupHopsSig:min 	0
scalar Network.dyn_peer[0] 	lookupHopsSig:mean 	9.6278938452851
scalar Network.dyn_peer[0] 	lookupHopsSig:timeavg 	9.8793069940231
scalar Network.dyn_peer[0] 	LookupFailuresSig:max 	-nan
scalar Network.dyn_peer[0] 	LookupFailuresSig:timeavg 	-nan
