version 2
run Join-81-20130429-12:54:48-17679
attr configname Join
attr datetime 20130429-12:54:48
attr experiment "\"Join\""
attr inifile omnetpp.ini
attr iterationvars $0=8192
attr iterationvars2 "$0=8192, $repetition=1"
attr measurement $0=8192
attr network Network
attr processid 17679
attr repetition 1
attr replication #1
attr resultdir results
attr runnumber 81
attr seedset 81

scalar Network.dyn_peer[0] 	lookupHopsSig:last 	58
scalar Network.dyn_peer[0] 	lookupHopsSig:max 	159
scalar Network.dyn_peer[0] 	lookupHopsSig:min 	1
scalar Network.dyn_peer[0] 	lookupHopsSig:mean 	41.784454955923
scalar Network.dyn_peer[0] 	lookupHopsSig:timeavg 	43.040429054655
scalar Network.dyn_peer[0] 	LookupFailuresSig:max 	-nan
scalar Network.dyn_peer[0] 	LookupFailuresSig:timeavg 	-nan
