version 2
run Join-53-20130429-12:51:01-17679
attr configname Join
attr datetime 20130429-12:51:01
attr experiment "\"Join\""
attr inifile omnetpp.ini
attr iterationvars $0=1024
attr iterationvars2 "$0=1024, $repetition=3"
attr measurement $0=1024
attr network Network
attr processid 17679
attr repetition 3
attr replication #3
attr resultdir results
attr runnumber 53
attr seedset 53

scalar Network.dyn_peer[0] 	lookupHopsSig:last 	26
scalar Network.dyn_peer[0] 	lookupHopsSig:max 	52
scalar Network.dyn_peer[0] 	lookupHopsSig:min 	1
scalar Network.dyn_peer[0] 	lookupHopsSig:mean 	13.579365981139
scalar Network.dyn_peer[0] 	lookupHopsSig:timeavg 	14.067010531168
scalar Network.dyn_peer[0] 	LookupFailuresSig:max 	-nan
scalar Network.dyn_peer[0] 	LookupFailuresSig:timeavg 	-nan
