version 2
run Join-82-20130429-12:55:18-17679
attr configname Join
attr datetime 20130429-12:55:18
attr experiment "\"Join\""
attr inifile omnetpp.ini
attr iterationvars $0=8192
attr iterationvars2 "$0=8192, $repetition=2"
attr measurement $0=8192
attr network Network
attr processid 17679
attr repetition 2
attr replication #2
attr resultdir results
attr runnumber 82
attr seedset 82

scalar Network.dyn_peer[0] 	lookupHopsSig:last 	99
scalar Network.dyn_peer[0] 	lookupHopsSig:max 	185
scalar Network.dyn_peer[0] 	lookupHopsSig:min 	1
scalar Network.dyn_peer[0] 	lookupHopsSig:mean 	35.474820143885
scalar Network.dyn_peer[0] 	lookupHopsSig:timeavg 	36.114960775062
scalar Network.dyn_peer[0] 	LookupFailuresSig:max 	-nan
scalar Network.dyn_peer[0] 	LookupFailuresSig:timeavg 	-nan
