version 2
run Join-84-20130429-12:56:16-17679
attr configname Join
attr datetime 20130429-12:56:16
attr experiment "\"Join\""
attr inifile omnetpp.ini
attr iterationvars $0=8192
attr iterationvars2 "$0=8192, $repetition=4"
attr measurement $0=8192
attr network Network
attr processid 17679
attr repetition 4
attr replication #4
attr resultdir results
attr runnumber 84
attr seedset 84

scalar Network.dyn_peer[0] 	lookupHopsSig:last 	56
scalar Network.dyn_peer[0] 	lookupHopsSig:max 	168
scalar Network.dyn_peer[0] 	lookupHopsSig:min 	1
scalar Network.dyn_peer[0] 	lookupHopsSig:mean 	37.197492163009
scalar Network.dyn_peer[0] 	lookupHopsSig:timeavg 	38.244555714651
scalar Network.dyn_peer[0] 	LookupFailuresSig:max 	-nan
scalar Network.dyn_peer[0] 	LookupFailuresSig:timeavg 	-nan
