version 2
run Join-87-20130429-12:57:41-17679
attr configname Join
attr datetime 20130429-12:57:41
attr experiment "\"Join\""
attr inifile omnetpp.ini
attr iterationvars $0=8192
attr iterationvars2 "$0=8192, $repetition=7"
attr measurement $0=8192
attr network Network
attr processid 17679
attr repetition 7
attr replication #7
attr resultdir results
attr runnumber 87
attr seedset 87

scalar Network.dyn_peer[0] 	lookupHopsSig:last 	13
scalar Network.dyn_peer[0] 	lookupHopsSig:max 	165
scalar Network.dyn_peer[0] 	lookupHopsSig:min 	1
scalar Network.dyn_peer[0] 	lookupHopsSig:mean 	40.007852839931
scalar Network.dyn_peer[0] 	lookupHopsSig:timeavg 	42.334334890554
scalar Network.dyn_peer[0] 	LookupFailuresSig:max 	-nan
scalar Network.dyn_peer[0] 	LookupFailuresSig:timeavg 	-nan
