version 2
run Join-36-20130429-12:50:14-17679
attr configname Join
attr datetime 20130429-12:50:14
attr experiment "\"Join\""
attr inifile omnetpp.ini
attr iterationvars $0=256
attr iterationvars2 "$0=256, $repetition=6"
attr measurement $0=256
attr network Network
attr processid 17679
attr repetition 6
attr replication #6
attr resultdir results
attr runnumber 36
attr seedset 36

scalar Network.dyn_peer[0] 	lookupHopsSig:last 	12
scalar Network.dyn_peer[0] 	lookupHopsSig:max 	23
scalar Network.dyn_peer[0] 	lookupHopsSig:min 	0
scalar Network.dyn_peer[0] 	lookupHopsSig:mean 	7.3541789114847
scalar Network.dyn_peer[0] 	lookupHopsSig:timeavg 	7.4605160700561
scalar Network.dyn_peer[0] 	LookupFailuresSig:max 	-nan
scalar Network.dyn_peer[0] 	LookupFailuresSig:timeavg 	-nan
