version 2
run Join-54-20130429-12:51:05-17679
attr configname Join
attr datetime 20130429-12:51:05
attr experiment "\"Join\""
attr inifile omnetpp.ini
attr iterationvars $0=1024
attr iterationvars2 "$0=1024, $repetition=4"
attr measurement $0=1024
attr network Network
attr processid 17679
attr repetition 4
attr replication #4
attr resultdir results
attr runnumber 54
attr seedset 54

scalar Network.dyn_peer[0] 	lookupHopsSig:last 	4
scalar Network.dyn_peer[0] 	lookupHopsSig:max 	48
scalar Network.dyn_peer[0] 	lookupHopsSig:min 	1
scalar Network.dyn_peer[0] 	lookupHopsSig:mean 	13.204628099174
scalar Network.dyn_peer[0] 	lookupHopsSig:timeavg 	13.544320384162
scalar Network.dyn_peer[0] 	LookupFailuresSig:max 	-nan
scalar Network.dyn_peer[0] 	LookupFailuresSig:timeavg 	-nan
