version 2
run Join-5-20130429-12:49:19-17679
attr configname Join
attr datetime 20130429-12:49:19
attr experiment "\"Join\""
attr inifile omnetpp.ini
attr iterationvars $0=32
attr iterationvars2 "$0=32, $repetition=5"
attr measurement $0=32
attr network Network
attr processid 17679
attr repetition 5
attr replication #5
attr resultdir results
attr runnumber 5
attr seedset 5

scalar Network.dyn_peer[0] 	lookupHopsSig:last 	1
scalar Network.dyn_peer[0] 	lookupHopsSig:max 	7
scalar Network.dyn_peer[0] 	lookupHopsSig:min 	0
scalar Network.dyn_peer[0] 	lookupHopsSig:mean 	2.3275816993464
scalar Network.dyn_peer[0] 	lookupHopsSig:timeavg 	2.3662365839278
scalar Network.dyn_peer[0] 	LookupFailuresSig:max 	-nan
scalar Network.dyn_peer[0] 	LookupFailuresSig:timeavg 	-nan
