version 2
run Join-26-20130429-12:49:54-17679
attr configname Join
attr datetime 20130429-12:49:54
attr experiment "\"Join\""
attr inifile omnetpp.ini
attr iterationvars $0=128
attr iterationvars2 "$0=128, $repetition=6"
attr measurement $0=128
attr network Network
attr processid 17679
attr repetition 6
attr replication #6
attr resultdir results
attr runnumber 26
attr seedset 26

scalar Network.dyn_peer[0] 	lookupHopsSig:last 	7
scalar Network.dyn_peer[0] 	lookupHopsSig:max 	15
scalar Network.dyn_peer[0] 	lookupHopsSig:min 	0
scalar Network.dyn_peer[0] 	lookupHopsSig:mean 	4.942922086122
scalar Network.dyn_peer[0] 	lookupHopsSig:timeavg 	5.0298262976342
scalar Network.dyn_peer[0] 	LookupFailuresSig:max 	-nan
scalar Network.dyn_peer[0] 	LookupFailuresSig:timeavg 	-nan
