version 2
run Join-71-20130429-12:52:37-17679
attr configname Join
attr datetime 20130429-12:52:37
attr experiment "\"Join\""
attr inifile omnetpp.ini
attr iterationvars $0=4096
attr iterationvars2 "$0=4096, $repetition=1"
attr measurement $0=4096
attr network Network
attr processid 17679
attr repetition 1
attr replication #1
attr resultdir results
attr runnumber 71
attr seedset 71

scalar Network.dyn_peer[0] 	lookupHopsSig:last 	30
scalar Network.dyn_peer[0] 	lookupHopsSig:max 	117
scalar Network.dyn_peer[0] 	lookupHopsSig:min 	1
scalar Network.dyn_peer[0] 	lookupHopsSig:mean 	27.126413265855
scalar Network.dyn_peer[0] 	lookupHopsSig:timeavg 	27.785232462892
scalar Network.dyn_peer[0] 	LookupFailuresSig:max 	-nan
scalar Network.dyn_peer[0] 	LookupFailuresSig:timeavg 	-nan
