version 2
run Join-90-20130429-12:59:10-17679
attr configname Join
attr datetime 20130429-12:59:10
attr experiment "\"Join\""
attr inifile omnetpp.ini
attr iterationvars $0=16384
attr iterationvars2 "$0=16384, $repetition=0"
attr measurement $0=16384
attr network Network
attr processid 17679
attr repetition 0
attr replication #0
attr resultdir results
attr runnumber 90
attr seedset 90

scalar Network.dyn_peer[0] 	lookupHopsSig:last 	38
scalar Network.dyn_peer[0] 	lookupHopsSig:max 	279
scalar Network.dyn_peer[0] 	lookupHopsSig:min 	1
scalar Network.dyn_peer[0] 	lookupHopsSig:mean 	55.855162780703
scalar Network.dyn_peer[0] 	lookupHopsSig:timeavg 	57.179725381118
scalar Network.dyn_peer[0] 	LookupFailuresSig:max 	-nan
scalar Network.dyn_peer[0] 	LookupFailuresSig:timeavg 	-nan
