version 2
run Join-95-20130429-13:07:36-17679
attr configname Join
attr datetime 20130429-13:07:36
attr experiment "\"Join\""
attr inifile omnetpp.ini
attr iterationvars $0=16384
attr iterationvars2 "$0=16384, $repetition=5"
attr measurement $0=16384
attr network Network
attr processid 17679
attr repetition 5
attr replication #5
attr resultdir results
attr runnumber 95
attr seedset 95

scalar Network.dyn_peer[0] 	lookupHopsSig:last 	41
scalar Network.dyn_peer[0] 	lookupHopsSig:max 	244
scalar Network.dyn_peer[0] 	lookupHopsSig:min 	1
scalar Network.dyn_peer[0] 	lookupHopsSig:mean 	51.783065915004
scalar Network.dyn_peer[0] 	lookupHopsSig:timeavg 	53.089938030185
scalar Network.dyn_peer[0] 	LookupFailuresSig:max 	-nan
scalar Network.dyn_peer[0] 	LookupFailuresSig:timeavg 	-nan
