version 2
run Stability2-310-20130526-00:54:47-26640
attr configname Stability2
attr datetime 20130526-00:54:47
attr experiment Stability2
attr inifile omnetpp.ini
attr iterationvars $0=1000
attr iterationvars2 "$0=1000, $repetition=10"
attr measurement $0=1000
attr network Network
attr processid 26640
attr repetition 10
attr replication #10
attr resultdir results
attr runnumber 310
attr seedset 310

scalar Network.dyn_peer[0] 	lookupTimeSig:mean 	1.8
scalar Network.dyn_peer[0] 	lookupStabilitySig:mean 	0.53903841444602
scalar Network.dyn_peer[0] 	lookupHopsSig:mean 	17.166666666667
scalar Network.dyn_peer[1] 	lookupTimeSig:mean 	0.73333333333333
scalar Network.dyn_peer[1] 	lookupStabilitySig:mean 	0.077777783075968
scalar Network.dyn_peer[1] 	lookupHopsSig:mean 	6.6666666666667
scalar Network.dyn_peer[2] 	lookupTimeSig:mean 	2.7
scalar Network.dyn_peer[2] 	lookupStabilitySig:mean 	0.41405988335609
scalar Network.dyn_peer[2] 	lookupHopsSig:mean 	26.2
scalar Network.dyn_peer[3] 	lookupTimeSig:mean 	2.25
scalar Network.dyn_peer[3] 	lookupStabilitySig:mean 	0.64158879546449
scalar Network.dyn_peer[3] 	lookupHopsSig:mean 	21.666666666667
scalar Network.dyn_peer[4] 	lookupTimeSig:mean 	1.975
scalar Network.dyn_peer[4] 	lookupStabilitySig:mean 	0.29959696903825
scalar Network.dyn_peer[4] 	lookupHopsSig:mean 	19
scalar Network.dyn_peer[5] 	lookupTimeSig:mean 	2.975
scalar Network.dyn_peer[5] 	lookupStabilitySig:mean 	0.56827732361853
scalar Network.dyn_peer[5] 	lookupHopsSig:mean 	29
scalar Network.dyn_peer[6] 	lookupTimeSig:mean 	1.86
scalar Network.dyn_peer[6] 	lookupStabilitySig:mean 	0.64270761795342
scalar Network.dyn_peer[6] 	lookupHopsSig:mean 	17.8
scalar Network.dyn_peer[7] 	lookupTimeSig:mean 	1.05
scalar Network.dyn_peer[7] 	lookupStabilitySig:mean 	0.52639603242278
scalar Network.dyn_peer[7] 	lookupHopsSig:mean 	9.75
scalar Network.dyn_peer[8] 	lookupTimeSig:mean 	2.56
scalar Network.dyn_peer[8] 	lookupStabilitySig:mean 	0.65107818823308
scalar Network.dyn_peer[8] 	lookupHopsSig:mean 	24.8
scalar Network.dyn_peer[9] 	lookupTimeSig:mean 	1.2545454545455
scalar Network.dyn_peer[9] 	lookupStabilitySig:mean 	0.74959966028109
scalar Network.dyn_peer[9] 	lookupHopsSig:mean 	11.636363636364
scalar Network.dyn_peer[10] 	lookupTimeSig:mean 	2.4
scalar Network.dyn_peer[10] 	lookupStabilitySig:mean 	0.52517535313964
scalar Network.dyn_peer[10] 	lookupHopsSig:mean 	23.2
scalar Network.dyn_peer[11] 	lookupTimeSig:mean 	1.9333333333333
scalar Network.dyn_peer[11] 	lookupStabilitySig:mean 	0.74552484332687
scalar Network.dyn_peer[11] 	lookupHopsSig:mean 	18.444444444444
scalar Network.dyn_peer[12] 	lookupTimeSig:mean 	2.125
scalar Network.dyn_peer[12] 	lookupStabilitySig:mean 	0.62573528848588
scalar Network.dyn_peer[12] 	lookupHopsSig:mean 	20.5
scalar Network.dyn_peer[13] 	lookupTimeSig:mean 	2.075
scalar Network.dyn_peer[13] 	lookupStabilitySig:mean 	0.50350716337562
scalar Network.dyn_peer[13] 	lookupHopsSig:mean 	20
scalar Network.dyn_peer[14] 	lookupTimeSig:mean 	2.25
scalar Network.dyn_peer[14] 	lookupStabilitySig:mean 	0.15064936876297
scalar Network.dyn_peer[14] 	lookupHopsSig:mean 	22
scalar Network.dyn_peer[15] 	lookupTimeSig:mean 	2.65
scalar Network.dyn_peer[15] 	lookupStabilitySig:mean 	0.5402616020292
scalar Network.dyn_peer[15] 	lookupHopsSig:mean 	25.75
scalar Network.dyn_peer[16] 	lookupTimeSig:mean 	1.5428571428571
scalar Network.dyn_peer[16] 	lookupStabilitySig:mean 	0.90998499323281
scalar Network.dyn_peer[16] 	lookupHopsSig:mean 	14.5
scalar Network.dyn_peer[17] 	lookupTimeSig:mean 	1.425
scalar Network.dyn_peer[17] 	lookupStabilitySig:mean 	0.34249084070325
scalar Network.dyn_peer[17] 	lookupHopsSig:mean 	13.5
scalar Network.dyn_peer[18] 	lookupTimeSig:mean 	1.62
scalar Network.dyn_peer[18] 	lookupStabilitySig:mean 	0.51288228109479
scalar Network.dyn_peer[18] 	lookupHopsSig:mean 	15.4
scalar Network.dyn_peer[19] 	lookupTimeSig:mean 	2.02
scalar Network.dyn_peer[19] 	lookupStabilitySig:mean 	0.76060506030917
scalar Network.dyn_peer[19] 	lookupHopsSig:mean 	19.4
scalar Network.dyn_peer[20] 	lookupTimeSig:mean 	4.4
scalar Network.dyn_peer[20] 	lookupStabilitySig:mean 	0.56338383257389
scalar Network.dyn_peer[20] 	lookupHopsSig:mean 	43.5
scalar Network.dyn_peer[21] 	lookupTimeSig:mean 	2.4166666666667
scalar Network.dyn_peer[21] 	lookupStabilitySig:mean 	0.78980078237752
scalar Network.dyn_peer[21] 	lookupHopsSig:mean 	23.333333333333
scalar Network.dyn_peer[22] 	lookupTimeSig:mean 	1.4857142857143
scalar Network.dyn_peer[22] 	lookupStabilitySig:mean 	0.78085954061576
scalar Network.dyn_peer[22] 	lookupHopsSig:mean 	14
scalar Network.dyn_peer[23] 	lookupTimeSig:mean 	1.86
scalar Network.dyn_peer[23] 	lookupStabilitySig:mean 	0.64538228213787
scalar Network.dyn_peer[23] 	lookupHopsSig:mean 	17.8
scalar Network.dyn_peer[24] 	lookupTimeSig:mean 	1.28
scalar Network.dyn_peer[24] 	lookupStabilitySig:mean 	0.60001233816147
scalar Network.dyn_peer[24] 	lookupHopsSig:mean 	12
scalar Network.dyn_peer[25] 	lookupTimeSig:mean 	2.15
scalar Network.dyn_peer[25] 	lookupStabilitySig:mean 	0.49189116992056
scalar Network.dyn_peer[25] 	lookupHopsSig:mean 	20.75
scalar Network.dyn_peer[26] 	lookupTimeSig:mean 	3.0666666666667
scalar Network.dyn_peer[26] 	lookupStabilitySig:mean 	0.63845039422934
scalar Network.dyn_peer[26] 	lookupHopsSig:mean 	29.833333333333
scalar Network.dyn_peer[27] 	lookupTimeSig:mean 	2.8
scalar Network.dyn_peer[27] 	lookupStabilitySig:mean 	0.46649465616792
scalar Network.dyn_peer[27] 	lookupHopsSig:mean 	27.25
scalar Network.dyn_peer[28] 	lookupTimeSig:mean 	1.9222222222222
scalar Network.dyn_peer[28] 	lookupStabilitySig:mean 	0.75360962603655
scalar Network.dyn_peer[28] 	lookupHopsSig:mean 	18.333333333333
scalar Network.dyn_peer[29] 	lookupTimeSig:mean 	2
scalar Network.dyn_peer[29] 	lookupStabilitySig:mean 	0.49986841529608
scalar Network.dyn_peer[29] 	lookupHopsSig:mean 	19.25
scalar Network.dyn_peer[30] 	lookupTimeSig:mean 	2.8
scalar Network.dyn_peer[30] 	lookupStabilitySig:mean 	0.49563953280449
scalar Network.dyn_peer[30] 	lookupHopsSig:mean 	27.5
scalar Network.dyn_peer[31] 	lookupTimeSig:mean 	2.34
scalar Network.dyn_peer[31] 	lookupStabilitySig:mean 	0.50025209784508
scalar Network.dyn_peer[31] 	lookupHopsSig:mean 	22.6
scalar Network.dyn_peer[32] 	lookupTimeSig:mean 	1.6625
scalar Network.dyn_peer[32] 	lookupStabilitySig:mean 	0.81769249215722
scalar Network.dyn_peer[32] 	lookupHopsSig:mean 	15.75
scalar Network.dyn_peer[33] 	lookupTimeSig:mean 	3.3
scalar Network.dyn_peer[33] 	lookupStabilitySig:mean 	0.34848484396935
scalar Network.dyn_peer[33] 	lookupHopsSig:mean 	32.5
scalar Network.dyn_peer[34] 	lookupTimeSig:mean 	0.85
scalar Network.dyn_peer[34] 	lookupStabilitySig:mean 	0.27127976715565
scalar Network.dyn_peer[34] 	lookupHopsSig:mean 	7.75
scalar Network.dyn_peer[35] 	lookupTimeSig:mean 	1.875
scalar Network.dyn_peer[35] 	lookupStabilitySig:mean 	0.56108557246625
scalar Network.dyn_peer[35] 	lookupHopsSig:mean 	18
scalar Network.dyn_peer[36] 	lookupTimeSig:mean 	2.1
scalar Network.dyn_peer[36] 	lookupStabilitySig:mean 	0.26207387447357
scalar Network.dyn_peer[36] 	lookupHopsSig:mean 	20.5
scalar Network.dyn_peer[37] 	lookupTimeSig:mean 	1.8928571428571
scalar Network.dyn_peer[37] 	lookupStabilitySig:mean 	0.80250854763602
scalar Network.dyn_peer[37] 	lookupHopsSig:mean 	18
scalar Network.dyn_peer[38] 	lookupTimeSig:mean 	1.9125
scalar Network.dyn_peer[38] 	lookupStabilitySig:mean 	0.81220270483755
scalar Network.dyn_peer[38] 	lookupHopsSig:mean 	18.25
scalar Network.dyn_peer[39] 	lookupTimeSig:mean 	1.5333333333333
scalar Network.dyn_peer[39] 	lookupStabilitySig:mean 	0.74541139556095
scalar Network.dyn_peer[39] 	lookupHopsSig:mean 	14.416666666667
scalar Network.dyn_peer[40] 	lookupTimeSig:mean 	1.8666666666667
scalar Network.dyn_peer[40] 	lookupStabilitySig:mean 	0.80274210621913
scalar Network.dyn_peer[40] 	lookupHopsSig:mean 	17.833333333333
scalar Network.dyn_peer[41] 	lookupTimeSig:mean 	1.5555555555556
scalar Network.dyn_peer[41] 	lookupStabilitySig:mean 	0.85600900577588
scalar Network.dyn_peer[41] 	lookupHopsSig:mean 	14.666666666667
scalar Network.dyn_peer[42] 	lookupTimeSig:mean 	2
scalar Network.dyn_peer[42] 	lookupStabilitySig:mean 	0.6137862727046
scalar Network.dyn_peer[42] 	lookupHopsSig:mean 	19.333333333333
scalar Network.dyn_peer[43] 	lookupTimeSig:mean 	1.6421052631579
scalar Network.dyn_peer[43] 	lookupStabilitySig:mean 	0.88878948219415
scalar Network.dyn_peer[43] 	lookupHopsSig:mean 	15.473684210526
scalar Network.dyn_peer[44] 	lookupTimeSig:mean 	2.9
scalar Network.dyn_peer[44] 	lookupStabilitySig:mean 	0.33364629745483
scalar Network.dyn_peer[44] 	lookupHopsSig:mean 	28.333333333333
scalar Network.dyn_peer[45] 	lookupTimeSig:mean 	1.8375
scalar Network.dyn_peer[45] 	lookupStabilitySig:mean 	0.77077694435138
scalar Network.dyn_peer[45] 	lookupHopsSig:mean 	17.5
scalar Network.dyn_peer[46] 	lookupTimeSig:mean 	2.04
scalar Network.dyn_peer[46] 	lookupStabilitySig:mean 	0.42496321201324
scalar Network.dyn_peer[46] 	lookupHopsSig:mean 	19.6
scalar Network.dyn_peer[47] 	lookupTimeSig:mean 	2.2333333333333
scalar Network.dyn_peer[47] 	lookupStabilitySig:mean 	0.74128960693876
scalar Network.dyn_peer[47] 	lookupHopsSig:mean 	21.666666666667
scalar Network.dyn_peer[48] 	lookupTimeSig:mean 	1.6857142857143
scalar Network.dyn_peer[48] 	lookupStabilitySig:mean 	0.85299464088998
scalar Network.dyn_peer[48] 	lookupHopsSig:mean 	16
scalar Network.dyn_peer[49] 	lookupTimeSig:mean 	1.9333333333333
scalar Network.dyn_peer[49] 	lookupStabilitySig:mean 	0.71167584011952
scalar Network.dyn_peer[49] 	lookupHopsSig:mean 	18.5
scalar Network.dyn_peer[50] 	lookupTimeSig:mean 	2.16
scalar Network.dyn_peer[50] 	lookupStabilitySig:mean 	0.83233435600996
scalar Network.dyn_peer[50] 	lookupHopsSig:mean 	20.8
scalar Network.dyn_peer[51] 	lookupTimeSig:mean 	2.125
scalar Network.dyn_peer[51] 	lookupStabilitySig:mean 	0.63966700807214
scalar Network.dyn_peer[51] 	lookupHopsSig:mean 	20.5
scalar Network.dyn_peer[52] 	lookupTimeSig:mean 	1.175
scalar Network.dyn_peer[52] 	lookupStabilitySig:mean 	0.69629852054641
scalar Network.dyn_peer[52] 	lookupHopsSig:mean 	10.875
scalar Network.dyn_peer[53] 	lookupTimeSig:mean 	1.625
scalar Network.dyn_peer[53] 	lookupStabilitySig:mean 	0.70840823743492
scalar Network.dyn_peer[53] 	lookupHopsSig:mean 	15.5
scalar Network.dyn_peer[54] 	lookupTimeSig:mean 	1.55
scalar Network.dyn_peer[54] 	lookupStabilitySig:mean 	-0.26666668057442
scalar Network.dyn_peer[54] 	lookupHopsSig:mean 	15
scalar Network.dyn_peer[55] 	lookupTimeSig:mean 	2.0666666666667
scalar Network.dyn_peer[55] 	lookupStabilitySig:mean 	0.63854623585939
scalar Network.dyn_peer[55] 	lookupHopsSig:mean 	20
scalar Network.dyn_peer[56] 	lookupTimeSig:mean 	1.45
scalar Network.dyn_peer[56] 	lookupStabilitySig:mean 	0.59722913615406
scalar Network.dyn_peer[56] 	lookupHopsSig:mean 	13.75
scalar Network.dyn_peer[57] 	lookupTimeSig:mean 	2.52
scalar Network.dyn_peer[57] 	lookupStabilitySig:mean 	0.75968981124461
scalar Network.dyn_peer[57] 	lookupHopsSig:mean 	24.4
scalar Network.dyn_peer[58] 	lookupTimeSig:mean 	2.0666666666667
scalar Network.dyn_peer[58] 	lookupStabilitySig:mean 	0.74512102780864
scalar Network.dyn_peer[58] 	lookupHopsSig:mean 	19.833333333333
scalar Network.dyn_peer[59] 	lookupTimeSig:mean 	1.8333333333333
scalar Network.dyn_peer[59] 	lookupStabilitySig:mean 	0.79576497897506
scalar Network.dyn_peer[59] 	lookupHopsSig:mean 	17.5
scalar Network.dyn_peer[60] 	lookupTimeSig:mean 	1.8666666666667
scalar Network.dyn_peer[60] 	lookupStabilitySig:mean 	0.69657494872808
scalar Network.dyn_peer[60] 	lookupHopsSig:mean 	18
scalar Network.dyn_peer[61] 	lookupTimeSig:mean 	1.5090909090909
scalar Network.dyn_peer[61] 	lookupStabilitySig:mean 	0.79239049613137
scalar Network.dyn_peer[61] 	lookupHopsSig:mean 	14.181818181818
scalar Network.dyn_peer[62] 	lookupTimeSig:mean 	1.58
scalar Network.dyn_peer[62] 	lookupStabilitySig:mean 	0.68851207867265
scalar Network.dyn_peer[62] 	lookupHopsSig:mean 	15
scalar Network.dyn_peer[63] 	lookupTimeSig:mean 	1.8166666666667
scalar Network.dyn_peer[63] 	lookupStabilitySig:mean 	0.67257499601692
scalar Network.dyn_peer[63] 	lookupHopsSig:mean 	17.333333333333
scalar Network.dyn_peer[64] 	lookupTimeSig:mean 	1.875
scalar Network.dyn_peer[64] 	lookupStabilitySig:mean 	0.8341703627957
scalar Network.dyn_peer[64] 	lookupHopsSig:mean 	17.875
scalar Network.dyn_peer[65] 	lookupTimeSig:mean 	2.725
scalar Network.dyn_peer[65] 	lookupStabilitySig:mean 	0.37904853373766
scalar Network.dyn_peer[65] 	lookupHopsSig:mean 	26.5
scalar Network.dyn_peer[66] 	lookupTimeSig:mean 	1.5333333333333
scalar Network.dyn_peer[66] 	lookupStabilitySig:mean 	0.94425825914368
scalar Network.dyn_peer[66] 	lookupHopsSig:mean 	14.416666666667
scalar Network.dyn_peer[67] 	lookupTimeSig:mean 	1.9166666666667
scalar Network.dyn_peer[67] 	lookupStabilitySig:mean 	0.86471942036102
scalar Network.dyn_peer[67] 	lookupHopsSig:mean 	18.333333333333
scalar Network.dyn_peer[68] 	lookupTimeSig:mean 	1.68
scalar Network.dyn_peer[68] 	lookupStabilitySig:mean 	0.38195368498564
scalar Network.dyn_peer[68] 	lookupHopsSig:mean 	16
scalar Network.dyn_peer[69] 	lookupTimeSig:mean 	2.075
scalar Network.dyn_peer[69] 	lookupStabilitySig:mean 	0.68626800348284
scalar Network.dyn_peer[69] 	lookupHopsSig:mean 	19.875
scalar Network.dyn_peer[70] 	lookupTimeSig:mean 	2.85
scalar Network.dyn_peer[70] 	lookupStabilitySig:mean 	0.61379310488701
scalar Network.dyn_peer[70] 	lookupHopsSig:mean 	28
scalar Network.dyn_peer[71] 	lookupTimeSig:mean 	1.5333333333333
scalar Network.dyn_peer[71] 	lookupStabilitySig:mean 	0.82089692478379
scalar Network.dyn_peer[71] 	lookupHopsSig:mean 	14.444444444444
scalar Network.dyn_peer[72] 	lookupTimeSig:mean 	1.9571428571429
scalar Network.dyn_peer[72] 	lookupStabilitySig:mean 	0.56406008665051
scalar Network.dyn_peer[72] 	lookupHopsSig:mean 	18.714285714286
scalar Network.dyn_peer[73] 	lookupTimeSig:mean 	2.075
scalar Network.dyn_peer[73] 	lookupStabilitySig:mean 	0.34877957869321
scalar Network.dyn_peer[73] 	lookupHopsSig:mean 	20
scalar Network.dyn_peer[74] 	lookupTimeSig:mean 	5.9
scalar Network.dyn_peer[74] 	lookupStabilitySig:mean 	0.58634029328823
scalar Network.dyn_peer[74] 	lookupHopsSig:mean 	58.5
scalar Network.dyn_peer[75] 	lookupTimeSig:mean 	1.6
scalar Network.dyn_peer[75] 	lookupStabilitySig:mean 	0.10606057941914
scalar Network.dyn_peer[75] 	lookupHopsSig:mean 	15.5
scalar Network.dyn_peer[76] 	lookupTimeSig:mean 	1.4333333333333
scalar Network.dyn_peer[76] 	lookupStabilitySig:mean 	0.57301586618026
scalar Network.dyn_peer[76] 	lookupHopsSig:mean 	13.666666666667
scalar Network.dyn_peer[77] 	lookupTimeSig:mean 	1.625
scalar Network.dyn_peer[77] 	lookupStabilitySig:mean 	0.77709958609194
scalar Network.dyn_peer[77] 	lookupHopsSig:mean 	15.375
scalar Network.dyn_peer[78] 	lookupTimeSig:mean 	2.525
scalar Network.dyn_peer[78] 	lookupStabilitySig:mean 	0.44526928290725
scalar Network.dyn_peer[78] 	lookupHopsSig:mean 	24.5
scalar Network.dyn_peer[79] 	lookupTimeSig:mean 	2.1833333333333
scalar Network.dyn_peer[79] 	lookupStabilitySig:mean 	0.75993347105881
scalar Network.dyn_peer[79] 	lookupHopsSig:mean 	21
scalar Network.dyn_peer[80] 	lookupTimeSig:mean 	2.325
scalar Network.dyn_peer[80] 	lookupStabilitySig:mean 	0.52990994602442
scalar Network.dyn_peer[80] 	lookupHopsSig:mean 	22.5
scalar Network.dyn_peer[81] 	lookupTimeSig:mean 	3.1666666666667
scalar Network.dyn_peer[81] 	lookupStabilitySig:mean 	0.40658434232076
scalar Network.dyn_peer[81] 	lookupHopsSig:mean 	31
scalar Network.dyn_peer[82] 	lookupTimeSig:mean 	1.7857142857143
scalar Network.dyn_peer[82] 	lookupStabilitySig:mean 	0.83402009268424
scalar Network.dyn_peer[82] 	lookupHopsSig:mean 	17
scalar Network.dyn_peer[83] 	lookupTimeSig:mean 	2.725
scalar Network.dyn_peer[83] 	lookupStabilitySig:mean 	0.33844049653271
scalar Network.dyn_peer[83] 	lookupHopsSig:mean 	26.5
scalar Network.dyn_peer[84] 	lookupTimeSig:mean 	1.55
scalar Network.dyn_peer[84] 	lookupStabilitySig:mean 	0.56877591647208
scalar Network.dyn_peer[84] 	lookupHopsSig:mean 	14.75
scalar Network.dyn_peer[85] 	lookupTimeSig:mean 	1.74
scalar Network.dyn_peer[85] 	lookupStabilitySig:mean 	0.61885450556874
scalar Network.dyn_peer[85] 	lookupHopsSig:mean 	16.6
scalar Network.dyn_peer[86] 	lookupTimeSig:mean 	4.25
scalar Network.dyn_peer[86] 	lookupStabilitySig:mean 	-0.10693641752005
scalar Network.dyn_peer[86] 	lookupHopsSig:mean 	42
scalar Network.dyn_peer[87] 	lookupTimeSig:mean 	3.25
scalar Network.dyn_peer[87] 	lookupStabilitySig:mean 	0.29852087050676
scalar Network.dyn_peer[87] 	lookupHopsSig:mean 	32
scalar Network.dyn_peer[88] 	lookupTimeSig:mean 	1.825
scalar Network.dyn_peer[88] 	lookupStabilitySig:mean 	0.37331261485815
scalar Network.dyn_peer[88] 	lookupHopsSig:mean 	17.5
scalar Network.dyn_peer[89] 	lookupTimeSig:mean 	1.8875
scalar Network.dyn_peer[89] 	lookupStabilitySig:mean 	0.74280937761068
scalar Network.dyn_peer[89] 	lookupHopsSig:mean 	18
scalar Network.dyn_peer[90] 	lookupTimeSig:mean 	2.42
scalar Network.dyn_peer[90] 	lookupStabilitySig:mean 	0.52825749441981
scalar Network.dyn_peer[90] 	lookupHopsSig:mean 	23.4
scalar Network.dyn_peer[91] 	lookupTimeSig:mean 	2.45
scalar Network.dyn_peer[91] 	lookupStabilitySig:mean 	0.56595699489117
scalar Network.dyn_peer[91] 	lookupHopsSig:mean 	23.75
scalar Network.dyn_peer[92] 	lookupTimeSig:mean 	1.8428571428571
scalar Network.dyn_peer[92] 	lookupStabilitySig:mean 	0.61314442813663
scalar Network.dyn_peer[92] 	lookupHopsSig:mean 	17.571428571429
scalar Network.dyn_peer[93] 	lookupTimeSig:mean 	1.8875
scalar Network.dyn_peer[93] 	lookupStabilitySig:mean 	0.83921599865425
scalar Network.dyn_peer[93] 	lookupHopsSig:mean 	18
scalar Network.dyn_peer[94] 	lookupTimeSig:mean 	2
scalar Network.dyn_peer[94] 	lookupStabilitySig:mean 	0.84419551491737
scalar Network.dyn_peer[94] 	lookupHopsSig:mean 	19.2
scalar Network.dyn_peer[95] 	lookupTimeSig:mean 	1.75
scalar Network.dyn_peer[95] 	lookupStabilitySig:mean 	0.43134138919413
scalar Network.dyn_peer[95] 	lookupHopsSig:mean 	16.75
scalar Network.dyn_peer[96] 	lookupTimeSig:mean 	2.0875
scalar Network.dyn_peer[96] 	lookupStabilitySig:mean 	0.77180453605251
scalar Network.dyn_peer[96] 	lookupHopsSig:mean 	20
scalar Network.dyn_peer[97] 	lookupTimeSig:mean 	2.06
scalar Network.dyn_peer[97] 	lookupStabilitySig:mean 	0.46070493906736
scalar Network.dyn_peer[97] 	lookupHopsSig:mean 	19.8
scalar Network.dyn_peer[98] 	lookupTimeSig:mean 	1.9857142857143
scalar Network.dyn_peer[98] 	lookupStabilitySig:mean 	0.83482058266444
scalar Network.dyn_peer[98] 	lookupHopsSig:mean 	19
scalar Network.dyn_peer[99] 	lookupTimeSig:mean 	1.5
scalar Network.dyn_peer[99] 	lookupStabilitySig:mean 	0.62856641113758
scalar Network.dyn_peer[99] 	lookupHopsSig:mean 	14.2
scalar Network.dyn_peer[100] 	lookupTimeSig:mean 	2.1666666666667
scalar Network.dyn_peer[100] 	lookupStabilitySig:mean 	0.6526035045584
scalar Network.dyn_peer[100] 	lookupHopsSig:mean 	21
scalar Network.dyn_peer[101] 	lookupTimeSig:mean 	1.3857142857143
scalar Network.dyn_peer[101] 	lookupStabilitySig:mean 	0.67580500936934
scalar Network.dyn_peer[101] 	lookupHopsSig:mean 	13
scalar Network.dyn_peer[102] 	lookupTimeSig:mean 	2.12
scalar Network.dyn_peer[102] 	lookupStabilitySig:mean 	0.88976466059685
scalar Network.dyn_peer[102] 	lookupHopsSig:mean 	20.4
scalar Network.dyn_peer[103] 	lookupTimeSig:mean 	2.2
scalar Network.dyn_peer[103] 	lookupStabilitySig:mean 	-0.20666666328907
scalar Network.dyn_peer[103] 	lookupHopsSig:mean 	21.5
scalar Network.dyn_peer[104] 	lookupTimeSig:mean 	1.6111111111111
scalar Network.dyn_peer[104] 	lookupStabilitySig:mean 	0.65485342447129
scalar Network.dyn_peer[104] 	lookupHopsSig:mean 	15.222222222222
scalar Network.dyn_peer[105] 	lookupTimeSig:mean 	1.8833333333333
scalar Network.dyn_peer[105] 	lookupStabilitySig:mean 	0.69780644316537
scalar Network.dyn_peer[105] 	lookupHopsSig:mean 	18
scalar Network.dyn_peer[106] 	lookupTimeSig:mean 	1.7428571428571
scalar Network.dyn_peer[106] 	lookupStabilitySig:mean 	0.91048751851278
scalar Network.dyn_peer[106] 	lookupHopsSig:mean 	16.571428571429
scalar Network.dyn_peer[107] 	lookupTimeSig:mean 	3
scalar Network.dyn_peer[107] 	lookupStabilitySig:mean 	0.4965493734926
scalar Network.dyn_peer[107] 	lookupHopsSig:mean 	29.2
scalar Network.dyn_peer[108] 	lookupTimeSig:mean 	1.6666666666667
scalar Network.dyn_peer[108] 	lookupStabilitySig:mean 	0.53068549372256
scalar Network.dyn_peer[108] 	lookupHopsSig:mean 	15.833333333333
scalar Network.dyn_peer[109] 	lookupTimeSig:mean 	2.2571428571429
scalar Network.dyn_peer[109] 	lookupStabilitySig:mean 	0.91521559482706
scalar Network.dyn_peer[109] 	lookupHopsSig:mean 	21.714285714286
scalar Network.dyn_peer[110] 	lookupTimeSig:mean 	1.3666666666667
scalar Network.dyn_peer[110] 	lookupStabilitySig:mean 	0.41967211167018
scalar Network.dyn_peer[110] 	lookupHopsSig:mean 	13
scalar Network.dyn_peer[111] 	lookupTimeSig:mean 	1.95
scalar Network.dyn_peer[111] 	lookupStabilitySig:mean 	0.36358092352748
scalar Network.dyn_peer[111] 	lookupHopsSig:mean 	18.75
scalar Network.dyn_peer[112] 	lookupTimeSig:mean 	3.3
scalar Network.dyn_peer[112] 	lookupStabilitySig:mean 	0.30578218152126
scalar Network.dyn_peer[112] 	lookupHopsSig:mean 	32.333333333333
scalar Network.dyn_peer[113] 	lookupTimeSig:mean 	1.55
scalar Network.dyn_peer[113] 	lookupStabilitySig:mean 	0.82387740863487
scalar Network.dyn_peer[113] 	lookupHopsSig:mean 	14.75
scalar Network.dyn_peer[114] 	lookupTimeSig:mean 	2.75
scalar Network.dyn_peer[114] 	lookupStabilitySig:mean 	0.55028624646366
scalar Network.dyn_peer[114] 	lookupHopsSig:mean 	26.75
scalar Network.dyn_peer[115] 	lookupTimeSig:mean 	2.56
scalar Network.dyn_peer[115] 	lookupStabilitySig:mean 	0.83410569988191
scalar Network.dyn_peer[115] 	lookupHopsSig:mean 	24.8
scalar Network.dyn_peer[116] 	lookupTimeSig:mean 	0.9
scalar Network.dyn_peer[116] 	lookupStabilitySig:mean 	0.54880289435387
scalar Network.dyn_peer[116] 	lookupHopsSig:mean 	8.2
scalar Network.dyn_peer[117] 	lookupTimeSig:mean 	1.7333333333333
scalar Network.dyn_peer[117] 	lookupStabilitySig:mean 	0.69304084829572
scalar Network.dyn_peer[117] 	lookupHopsSig:mean 	16.444444444444
scalar Network.dyn_peer[118] 	lookupTimeSig:mean 	1.3333333333333
scalar Network.dyn_peer[118] 	lookupStabilitySig:mean 	0.21423219144344
scalar Network.dyn_peer[118] 	lookupHopsSig:mean 	12.666666666667
scalar Network.dyn_peer[119] 	lookupTimeSig:mean 	1.4333333333333
scalar Network.dyn_peer[119] 	lookupStabilitySig:mean 	0.85545642685611
scalar Network.dyn_peer[119] 	lookupHopsSig:mean 	13.416666666667
scalar Network.dyn_peer[120] 	lookupTimeSig:mean 	1.6777777777778
scalar Network.dyn_peer[120] 	lookupStabilitySig:mean 	0.92621027440247
scalar Network.dyn_peer[120] 	lookupHopsSig:mean 	15.888888888889
scalar Network.dyn_peer[121] 	lookupTimeSig:mean 	1.36
scalar Network.dyn_peer[121] 	lookupStabilitySig:mean 	0.5970584390685
scalar Network.dyn_peer[121] 	lookupHopsSig:mean 	12.8
scalar Network.dyn_peer[122] 	lookupTimeSig:mean 	1.8
scalar Network.dyn_peer[122] 	lookupStabilitySig:mean 	-0.049999982118607
scalar Network.dyn_peer[122] 	lookupHopsSig:mean 	17.5
scalar Network.dyn_peer[123] 	lookupTimeSig:mean 	1.6
scalar Network.dyn_peer[123] 	lookupStabilitySig:mean 	0.85603866768846
scalar Network.dyn_peer[123] 	lookupHopsSig:mean 	15.166666666667
scalar Network.dyn_peer[124] 	lookupTimeSig:mean 	3.3
scalar Network.dyn_peer[124] 	lookupStabilitySig:mean 	0.74204163253307
scalar Network.dyn_peer[124] 	lookupHopsSig:mean 	32.333333333333
scalar Network.dyn_peer[125] 	lookupTimeSig:mean 	1.9
scalar Network.dyn_peer[125] 	lookupStabilitySig:mean 	0.14896767338117
scalar Network.dyn_peer[125] 	lookupHopsSig:mean 	18.333333333333
scalar Network.dyn_peer[126] 	lookupTimeSig:mean 	1.65
scalar Network.dyn_peer[126] 	lookupStabilitySig:mean 	0
scalar Network.dyn_peer[126] 	lookupHopsSig:mean 	16
scalar Network.dyn_peer[127] 	lookupTimeSig:mean 	2.7333333333333
scalar Network.dyn_peer[127] 	lookupStabilitySig:mean 	0.79352402314544
scalar Network.dyn_peer[127] 	lookupHopsSig:mean 	26.666666666667
scalar Network.dyn_peer[128] 	lookupTimeSig:mean 	1.6
scalar Network.dyn_peer[128] 	lookupStabilitySig:mean 	0.60783351422288
scalar Network.dyn_peer[128] 	lookupHopsSig:mean 	15.25
scalar Network.dyn_peer[129] 	lookupTimeSig:mean 	1.9333333333333
scalar Network.dyn_peer[129] 	lookupStabilitySig:mean 	0.72603755754729
scalar Network.dyn_peer[129] 	lookupHopsSig:mean 	18.444444444444
scalar Network.dyn_peer[130] 	lookupTimeSig:mean 	1.275
scalar Network.dyn_peer[130] 	lookupStabilitySig:mean 	0.66424048971385
scalar Network.dyn_peer[130] 	lookupHopsSig:mean 	12
scalar Network.dyn_peer[131] 	lookupTimeSig:mean 	1.25
scalar Network.dyn_peer[131] 	lookupStabilitySig:mean 	0.75566787955662
scalar Network.dyn_peer[131] 	lookupHopsSig:mean 	11.666666666667
scalar Network.dyn_peer[132] 	lookupTimeSig:mean 	1.95
scalar Network.dyn_peer[132] 	lookupStabilitySig:mean 	0.57688091198603
scalar Network.dyn_peer[132] 	lookupHopsSig:mean 	18.666666666667
scalar Network.dyn_peer[133] 	lookupTimeSig:mean 	1.5083333333333
scalar Network.dyn_peer[133] 	lookupStabilitySig:mean 	0.94161140444339
scalar Network.dyn_peer[133] 	lookupHopsSig:mean 	14.166666666667
scalar Network.dyn_peer[134] 	lookupTimeSig:mean 	3.1666666666667
scalar Network.dyn_peer[134] 	lookupStabilitySig:mean 	0.74431699762742
scalar Network.dyn_peer[134] 	lookupHopsSig:mean 	31
scalar Network.dyn_peer[135] 	lookupTimeSig:mean 	4.2
scalar Network.dyn_peer[135] 	lookupStabilitySig:mean 	0.20885414878527
scalar Network.dyn_peer[135] 	lookupHopsSig:mean 	41.333333333333
scalar Network.dyn_peer[136] 	lookupTimeSig:mean 	1.78
scalar Network.dyn_peer[136] 	lookupStabilitySig:mean 	0.65723664797843
scalar Network.dyn_peer[136] 	lookupHopsSig:mean 	17
scalar Network.dyn_peer[137] 	lookupTimeSig:mean 	2.475
scalar Network.dyn_peer[137] 	lookupStabilitySig:mean 	0.76256703492254
scalar Network.dyn_peer[137] 	lookupHopsSig:mean 	24
scalar Network.dyn_peer[138] 	lookupTimeSig:mean 	2
scalar Network.dyn_peer[138] 	lookupStabilitySig:mean 	0.93268843088299
scalar Network.dyn_peer[138] 	lookupHopsSig:mean 	19.2
scalar Network.dyn_peer[139] 	lookupTimeSig:mean 	1.7222222222222
scalar Network.dyn_peer[139] 	lookupStabilitySig:mean 	0.7227187793081
scalar Network.dyn_peer[139] 	lookupHopsSig:mean 	16.333333333333
scalar Network.dyn_peer[140] 	lookupTimeSig:mean 	1.98
scalar Network.dyn_peer[140] 	lookupStabilitySig:mean 	0.77534237094224
scalar Network.dyn_peer[140] 	lookupHopsSig:mean 	19
scalar Network.dyn_peer[141] 	lookupTimeSig:mean 	1.7
scalar Network.dyn_peer[141] 	lookupStabilitySig:mean 	0.37254463881254
scalar Network.dyn_peer[141] 	lookupHopsSig:mean 	16.25
scalar Network.dyn_peer[142] 	lookupTimeSig:mean 	1.8666666666667
scalar Network.dyn_peer[142] 	lookupStabilitySig:mean 	0.4524256537358
scalar Network.dyn_peer[142] 	lookupHopsSig:mean 	18
scalar Network.dyn_peer[143] 	lookupTimeSig:mean 	1.7888888888889
scalar Network.dyn_peer[143] 	lookupStabilitySig:mean 	0.95220416048283
scalar Network.dyn_peer[143] 	lookupHopsSig:mean 	17
scalar Network.dyn_peer[144] 	lookupTimeSig:mean 	2.45
scalar Network.dyn_peer[144] 	lookupStabilitySig:mean 	0.88502541556954
scalar Network.dyn_peer[144] 	lookupHopsSig:mean 	23.75
scalar Network.dyn_peer[145] 	lookupTimeSig:mean 	1.8
scalar Network.dyn_peer[145] 	lookupStabilitySig:mean 	0.39756096899509
scalar Network.dyn_peer[145] 	lookupHopsSig:mean 	17.5
scalar Network.dyn_peer[146] 	lookupTimeSig:mean 	1.35
scalar Network.dyn_peer[146] 	lookupStabilitySig:mean 	0.28504788130522
scalar Network.dyn_peer[146] 	lookupHopsSig:mean 	12.75
scalar Network.dyn_peer[147] 	lookupTimeSig:mean 	2.28
scalar Network.dyn_peer[147] 	lookupStabilitySig:mean 	0.76137847453356
scalar Network.dyn_peer[147] 	lookupHopsSig:mean 	22
scalar Network.dyn_peer[148] 	lookupTimeSig:mean 	1.2666666666667
scalar Network.dyn_peer[148] 	lookupStabilitySig:mean 	0.41249999900659
scalar Network.dyn_peer[148] 	lookupHopsSig:mean 	12
scalar Network.dyn_peer[149] 	lookupTimeSig:mean 	1.58
scalar Network.dyn_peer[149] 	lookupStabilitySig:mean 	0.93866843474098
scalar Network.dyn_peer[149] 	lookupHopsSig:mean 	14.9
scalar Network.dyn_peer[150] 	lookupTimeSig:mean 	1.8666666666667
scalar Network.dyn_peer[150] 	lookupStabilitySig:mean 	0.48186086614927
scalar Network.dyn_peer[150] 	lookupHopsSig:mean 	18
scalar Network.dyn_peer[151] 	lookupTimeSig:mean 	1.475
scalar Network.dyn_peer[151] 	lookupStabilitySig:mean 	0.85917198910223
scalar Network.dyn_peer[151] 	lookupHopsSig:mean 	13.833333333333
scalar Network.dyn_peer[152] 	lookupTimeSig:mean 	2.64
scalar Network.dyn_peer[152] 	lookupStabilitySig:mean 	0.66006165407598
scalar Network.dyn_peer[152] 	lookupHopsSig:mean 	25.6
scalar Network.dyn_peer[153] 	lookupTimeSig:mean 	1.48
scalar Network.dyn_peer[153] 	lookupStabilitySig:mean 	0.76669796407223
scalar Network.dyn_peer[153] 	lookupHopsSig:mean 	14
scalar Network.dyn_peer[154] 	lookupTimeSig:mean 	1.5
scalar Network.dyn_peer[154] 	lookupStabilitySig:mean 	0.6086086976741
scalar Network.dyn_peer[154] 	lookupHopsSig:mean 	14.142857142857
scalar Network.dyn_peer[155] 	lookupTimeSig:mean 	0.83333333333333
scalar Network.dyn_peer[155] 	lookupStabilitySig:mean 	0.21250000596046
scalar Network.dyn_peer[155] 	lookupHopsSig:mean 	7.6666666666667
scalar Network.dyn_peer[156] 	lookupTimeSig:mean 	2
scalar Network.dyn_peer[156] 	lookupStabilitySig:mean 	0.51556277833879
scalar Network.dyn_peer[156] 	lookupHopsSig:mean 	19.25
scalar Network.dyn_peer[157] 	lookupTimeSig:mean 	1.1583333333333
scalar Network.dyn_peer[157] 	lookupStabilitySig:mean 	0.8282924189698
scalar Network.dyn_peer[157] 	lookupHopsSig:mean 	10.666666666667
scalar Network.dyn_peer[158] 	lookupTimeSig:mean 	2.85
scalar Network.dyn_peer[158] 	lookupStabilitySig:mean 	0.82296789623797
scalar Network.dyn_peer[158] 	lookupHopsSig:mean 	27.75
scalar Network.dyn_peer[159] 	lookupTimeSig:mean 	2
scalar Network.dyn_peer[159] 	lookupStabilitySig:mean 	0.81581023726612
scalar Network.dyn_peer[159] 	lookupHopsSig:mean 	19.2
scalar Network.dyn_peer[160] 	lookupTimeSig:mean 	1.52
scalar Network.dyn_peer[160] 	lookupStabilitySig:mean 	0.57654320150614
scalar Network.dyn_peer[160] 	lookupHopsSig:mean 	14.4
scalar Network.dyn_peer[161] 	lookupTimeSig:mean 	1.6777777777778
scalar Network.dyn_peer[161] 	lookupStabilitySig:mean 	0.85567384968615
scalar Network.dyn_peer[161] 	lookupHopsSig:mean 	15.888888888889
scalar Network.dyn_peer[162] 	lookupTimeSig:mean 	1.525
scalar Network.dyn_peer[162] 	lookupStabilitySig:mean 	0.53843023441732
scalar Network.dyn_peer[162] 	lookupHopsSig:mean 	14.5
scalar Network.dyn_peer[163] 	lookupTimeSig:mean 	2.3666666666667
scalar Network.dyn_peer[163] 	lookupStabilitySig:mean 	0.62277269611756
scalar Network.dyn_peer[163] 	lookupHopsSig:mean 	23
scalar Network.dyn_peer[164] 	lookupTimeSig:mean 	1.425
scalar Network.dyn_peer[164] 	lookupStabilitySig:mean 	0.51621186733246
scalar Network.dyn_peer[164] 	lookupHopsSig:mean 	13.5
scalar Network.dyn_peer[165] 	lookupTimeSig:mean 	2.3666666666667
scalar Network.dyn_peer[165] 	lookupStabilitySig:mean 	0.79584174851576
scalar Network.dyn_peer[165] 	lookupHopsSig:mean 	23
scalar Network.dyn_peer[166] 	lookupTimeSig:mean 	2.3
scalar Network.dyn_peer[166] 	lookupStabilitySig:mean 	0.60067460406572
scalar Network.dyn_peer[166] 	lookupHopsSig:mean 	22.25
scalar Network.dyn_peer[167] 	lookupTimeSig:mean 	1.3166666666667
scalar Network.dyn_peer[167] 	lookupStabilitySig:mean 	0.66995184402913
scalar Network.dyn_peer[167] 	lookupHopsSig:mean 	12.333333333333
scalar Network.dyn_peer[168] 	lookupTimeSig:mean 	1.5285714285714
scalar Network.dyn_peer[168] 	lookupStabilitySig:mean 	0.8503767773509
scalar Network.dyn_peer[168] 	lookupHopsSig:mean 	14.428571428571
scalar Network.dyn_peer[169] 	lookupTimeSig:mean 	4.15
scalar Network.dyn_peer[169] 	lookupStabilitySig:mean 	0.54657325893641
scalar Network.dyn_peer[169] 	lookupHopsSig:mean 	41
scalar Network.dyn_peer[170] 	lookupTimeSig:mean 	1.4727272727273
scalar Network.dyn_peer[170] 	lookupStabilitySig:mean 	0.74322105597027
scalar Network.dyn_peer[170] 	lookupHopsSig:mean 	13.818181818182
scalar Network.dyn_peer[171] 	lookupTimeSig:mean 	2.55
scalar Network.dyn_peer[171] 	lookupStabilitySig:mean 	0.29511278867722
scalar Network.dyn_peer[171] 	lookupHopsSig:mean 	25
scalar Network.dyn_peer[172] 	lookupTimeSig:mean 	2.5888888888889
scalar Network.dyn_peer[172] 	lookupStabilitySig:mean 	0.80008268232147
scalar Network.dyn_peer[172] 	lookupHopsSig:mean 	25
scalar Network.dyn_peer[173] 	lookupTimeSig:mean 	2.15
scalar Network.dyn_peer[173] 	lookupStabilitySig:mean 	0.58173249382526
scalar Network.dyn_peer[173] 	lookupHopsSig:mean 	20.75
scalar Network.dyn_peer[174] 	lookupTimeSig:mean 	1.3714285714286
scalar Network.dyn_peer[174] 	lookupStabilitySig:mean 	0.8619872589895
scalar Network.dyn_peer[174] 	lookupHopsSig:mean 	12.785714285714
scalar Network.dyn_peer[175] 	lookupTimeSig:mean 	1.1666666666667
scalar Network.dyn_peer[175] 	lookupStabilitySig:mean 	0.058119664589564
scalar Network.dyn_peer[175] 	lookupHopsSig:mean 	11
scalar Network.dyn_peer[176] 	lookupTimeSig:mean 	3.55
scalar Network.dyn_peer[176] 	lookupStabilitySig:mean 	0.364212885499
scalar Network.dyn_peer[176] 	lookupHopsSig:mean 	34.75
scalar Network.dyn_peer[177] 	lookupTimeSig:mean 	4.35
scalar Network.dyn_peer[177] 	lookupStabilitySig:mean 	0.22506830841303
scalar Network.dyn_peer[177] 	lookupHopsSig:mean 	43
scalar Network.dyn_peer[178] 	lookupTimeSig:mean 	2.775
scalar Network.dyn_peer[178] 	lookupStabilitySig:mean 	0.37048553489149
scalar Network.dyn_peer[178] 	lookupHopsSig:mean 	27
scalar Network.dyn_peer[179] 	lookupTimeSig:mean 	1.9
scalar Network.dyn_peer[179] 	lookupStabilitySig:mean 	0.59107648891707
scalar Network.dyn_peer[179] 	lookupHopsSig:mean 	18.166666666667
scalar Network.dyn_peer[180] 	lookupTimeSig:mean 	2.5
scalar Network.dyn_peer[180] 	lookupStabilitySig:mean 	0.67798543721437
scalar Network.dyn_peer[180] 	lookupHopsSig:mean 	24.333333333333
scalar Network.dyn_peer[181] 	lookupTimeSig:mean 	3.3
scalar Network.dyn_peer[181] 	lookupStabilitySig:mean 	0.7904743483911
scalar Network.dyn_peer[181] 	lookupHopsSig:mean 	32.333333333333
scalar Network.dyn_peer[182] 	lookupTimeSig:mean 	1.4125
scalar Network.dyn_peer[182] 	lookupStabilitySig:mean 	0.72587448899867
scalar Network.dyn_peer[182] 	lookupHopsSig:mean 	13.25
scalar Network.dyn_peer[183] 	lookupTimeSig:mean 	1.925
scalar Network.dyn_peer[183] 	lookupStabilitySig:mean 	0.62057331390679
scalar Network.dyn_peer[183] 	lookupHopsSig:mean 	18.5
scalar Network.dyn_peer[184] 	lookupTimeSig:mean 	1.95
scalar Network.dyn_peer[184] 	lookupStabilitySig:mean 	0.48051043972373
scalar Network.dyn_peer[184] 	lookupHopsSig:mean 	18.75
scalar Network.dyn_peer[185] 	lookupTimeSig:mean 	1.3333333333333
scalar Network.dyn_peer[185] 	lookupStabilitySig:mean 	0.16666665673256
scalar Network.dyn_peer[185] 	lookupHopsSig:mean 	12.666666666667
scalar Network.dyn_peer[186] 	lookupTimeSig:mean 	2.4
scalar Network.dyn_peer[186] 	lookupStabilitySig:mean 	0.56667809436719
scalar Network.dyn_peer[186] 	lookupHopsSig:mean 	23.333333333333
scalar Network.dyn_peer[187] 	lookupTimeSig:mean 	1.87
scalar Network.dyn_peer[187] 	lookupStabilitySig:mean 	0.95773512921296
scalar Network.dyn_peer[187] 	lookupHopsSig:mean 	17.8
scalar Network.dyn_peer[188] 	lookupTimeSig:mean 	1.675
scalar Network.dyn_peer[188] 	lookupStabilitySig:mean 	0.37790279462934
scalar Network.dyn_peer[188] 	lookupHopsSig:mean 	16
scalar Network.dyn_peer[189] 	lookupTimeSig:mean 	2.48
scalar Network.dyn_peer[189] 	lookupStabilitySig:mean 	0.88076309747994
scalar Network.dyn_peer[189] 	lookupHopsSig:mean 	24
scalar Network.dyn_peer[190] 	lookupTimeSig:mean 	3.2
scalar Network.dyn_peer[190] 	lookupStabilitySig:mean 	0.28300518045823
scalar Network.dyn_peer[190] 	lookupHopsSig:mean 	31.333333333333
scalar Network.dyn_peer[191] 	lookupTimeSig:mean 	2.725
scalar Network.dyn_peer[191] 	lookupStabilitySig:mean 	0.3700588978827
scalar Network.dyn_peer[191] 	lookupHopsSig:mean 	26.5
scalar Network.dyn_peer[192] 	lookupTimeSig:mean 	2.7333333333333
scalar Network.dyn_peer[192] 	lookupStabilitySig:mean 	0.8147058536609
scalar Network.dyn_peer[192] 	lookupHopsSig:mean 	26.666666666667
scalar Network.dyn_peer[193] 	lookupTimeSig:mean 	2.0285714285714
scalar Network.dyn_peer[193] 	lookupStabilitySig:mean 	0.76031734009406
scalar Network.dyn_peer[193] 	lookupHopsSig:mean 	19.428571428571
scalar Network.dyn_peer[194] 	lookupTimeSig:mean 	1.54
scalar Network.dyn_peer[194] 	lookupStabilitySig:mean 	0.83784264866263
scalar Network.dyn_peer[194] 	lookupHopsSig:mean 	14.5
scalar Network.dyn_peer[195] 	lookupTimeSig:mean 	1.9333333333333
scalar Network.dyn_peer[195] 	lookupStabilitySig:mean 	0.63612430542707
scalar Network.dyn_peer[195] 	lookupHopsSig:mean 	18.666666666667
scalar Network.dyn_peer[196] 	lookupTimeSig:mean 	2.2
scalar Network.dyn_peer[196] 	lookupStabilitySig:mean 	0.92619002131479
scalar Network.dyn_peer[196] 	lookupHopsSig:mean 	21.142857142857
scalar Network.dyn_peer[197] 	lookupTimeSig:mean 	1.7153846153846
scalar Network.dyn_peer[197] 	lookupStabilitySig:mean 	0.81110400835482
scalar Network.dyn_peer[197] 	lookupHopsSig:mean 	16.230769230769
scalar Network.dyn_peer[198] 	lookupTimeSig:mean 	1.49
scalar Network.dyn_peer[198] 	lookupStabilitySig:mean 	0.86962870424613
scalar Network.dyn_peer[198] 	lookupHopsSig:mean 	14
scalar Network.dyn_peer[199] 	lookupTimeSig:mean 	1.2375
scalar Network.dyn_peer[199] 	lookupStabilitySig:mean 	0.85844699270092
scalar Network.dyn_peer[199] 	lookupHopsSig:mean 	11.5
scalar Network.dyn_peer[200] 	lookupTimeSig:mean 	1.225
scalar Network.dyn_peer[200] 	lookupStabilitySig:mean 	0.54643548699096
scalar Network.dyn_peer[200] 	lookupHopsSig:mean 	11.5
scalar Network.dyn_peer[201] 	lookupTimeSig:mean 	2.7333333333333
scalar Network.dyn_peer[201] 	lookupStabilitySig:mean 	0.72204012175401
scalar Network.dyn_peer[201] 	lookupHopsSig:mean 	26.666666666667
scalar Network.dyn_peer[202] 	lookupTimeSig:mean 	3.8
scalar Network.dyn_peer[202] 	lookupStabilitySig:mean 	0.24354457855225
scalar Network.dyn_peer[202] 	lookupHopsSig:mean 	37.5
scalar Network.dyn_peer[203] 	lookupTimeSig:mean 	1.25
scalar Network.dyn_peer[203] 	lookupStabilitySig:mean 	0.30287611670792
scalar Network.dyn_peer[203] 	lookupHopsSig:mean 	11.75
scalar Network.dyn_peer[204] 	lookupTimeSig:mean 	2.4
scalar Network.dyn_peer[204] 	lookupStabilitySig:mean 	0.95061239533659
scalar Network.dyn_peer[204] 	lookupHopsSig:mean 	23.142857142857
scalar Network.dyn_peer[205] 	lookupTimeSig:mean 	2.1125
scalar Network.dyn_peer[205] 	lookupStabilitySig:mean 	0.90353547461564
scalar Network.dyn_peer[205] 	lookupHopsSig:mean 	20.25
scalar Network.dyn_peer[206] 	lookupTimeSig:mean 	1.3571428571429
scalar Network.dyn_peer[206] 	lookupStabilitySig:mean 	0.81865998969546
scalar Network.dyn_peer[206] 	lookupHopsSig:mean 	12.714285714286
scalar Network.dyn_peer[207] 	lookupTimeSig:mean 	1.4909090909091
scalar Network.dyn_peer[207] 	lookupStabilitySig:mean 	0.96480290701782
scalar Network.dyn_peer[207] 	lookupHopsSig:mean 	14
scalar Network.dyn_peer[208] 	lookupTimeSig:mean 	2.66
scalar Network.dyn_peer[208] 	lookupStabilitySig:mean 	0.65051791276783
scalar Network.dyn_peer[208] 	lookupHopsSig:mean 	25.8
scalar Network.dyn_peer[209] 	lookupTimeSig:mean 	3.3
scalar Network.dyn_peer[209] 	lookupStabilitySig:mean 	0.77803805470467
scalar Network.dyn_peer[209] 	lookupHopsSig:mean 	32.333333333333
scalar Network.dyn_peer[210] 	lookupTimeSig:mean 	1.875
scalar Network.dyn_peer[210] 	lookupStabilitySig:mean 	0.78096591448411
scalar Network.dyn_peer[210] 	lookupHopsSig:mean 	18
scalar Network.dyn_peer[211] 	lookupTimeSig:mean 	1.375
scalar Network.dyn_peer[211] 	lookupStabilitySig:mean 	0.85674680187367
scalar Network.dyn_peer[211] 	lookupHopsSig:mean 	12.875
scalar Network.dyn_peer[212] 	lookupTimeSig:mean 	1.6307692307692
scalar Network.dyn_peer[212] 	lookupStabilitySig:mean 	0.91596413808517
scalar Network.dyn_peer[212] 	lookupHopsSig:mean 	15.384615384615
scalar Network.dyn_peer[213] 	lookupTimeSig:mean 	2.1666666666667
scalar Network.dyn_peer[213] 	lookupStabilitySig:mean 	0.3943076133728
scalar Network.dyn_peer[213] 	lookupHopsSig:mean 	21
scalar Network.dyn_peer[214] 	lookupTimeSig:mean 	2.05
scalar Network.dyn_peer[214] 	lookupStabilitySig:mean 	0.70149254798889
scalar Network.dyn_peer[214] 	lookupHopsSig:mean 	20
scalar Network.dyn_peer[215] 	lookupTimeSig:mean 	1.4333333333333
scalar Network.dyn_peer[215] 	lookupStabilitySig:mean 	0.56662167608738
scalar Network.dyn_peer[215] 	lookupHopsSig:mean 	13.666666666667
scalar Network.dyn_peer[216] 	lookupTimeSig:mean 	2.9
scalar Network.dyn_peer[216] 	lookupStabilitySig:mean 	0.58708060905337
scalar Network.dyn_peer[216] 	lookupHopsSig:mean 	28.25
scalar Network.dyn_peer[217] 	lookupTimeSig:mean 	1.4333333333333
scalar Network.dyn_peer[217] 	lookupStabilitySig:mean 	0.77995522196094
scalar Network.dyn_peer[217] 	lookupHopsSig:mean 	13.444444444444
scalar Network.dyn_peer[218] 	lookupTimeSig:mean 	3.9333333333333
scalar Network.dyn_peer[218] 	lookupStabilitySig:mean 	0.77134375522534
scalar Network.dyn_peer[218] 	lookupHopsSig:mean 	38.666666666667
scalar Network.dyn_peer[219] 	lookupTimeSig:mean 	1.4555555555556
scalar Network.dyn_peer[219] 	lookupStabilitySig:mean 	0.84209237972067
scalar Network.dyn_peer[219] 	lookupHopsSig:mean 	13.666666666667
scalar Network.dyn_peer[220] 	lookupTimeSig:mean 	1.7714285714286
scalar Network.dyn_peer[220] 	lookupStabilitySig:mean 	0.91060249720301
scalar Network.dyn_peer[220] 	lookupHopsSig:mean 	16.857142857143
scalar Network.dyn_peer[221] 	lookupTimeSig:mean 	1.725
scalar Network.dyn_peer[221] 	lookupStabilitySig:mean 	0.83099241077434
scalar Network.dyn_peer[221] 	lookupHopsSig:mean 	16.375
scalar Network.dyn_peer[222] 	lookupTimeSig:mean 	2
scalar Network.dyn_peer[222] 	lookupStabilitySig:mean 	0.49705783091486
scalar Network.dyn_peer[222] 	lookupHopsSig:mean 	19.25
scalar Network.dyn_peer[223] 	lookupTimeSig:mean 	1.7
scalar Network.dyn_peer[223] 	lookupStabilitySig:mean 	0.90991443462138
scalar Network.dyn_peer[223] 	lookupHopsSig:mean 	16.142857142857
scalar Network.dyn_peer[224] 	lookupTimeSig:mean 	1.5625
scalar Network.dyn_peer[224] 	lookupStabilitySig:mean 	0.84205940261018
scalar Network.dyn_peer[224] 	lookupHopsSig:mean 	14.75
scalar Network.dyn_peer[225] 	lookupTimeSig:mean 	1.425
scalar Network.dyn_peer[225] 	lookupStabilitySig:mean 	0.77381465607323
scalar Network.dyn_peer[225] 	lookupHopsSig:mean 	13.375
scalar Network.dyn_peer[226] 	lookupTimeSig:mean 	1.65
scalar Network.dyn_peer[226] 	lookupStabilitySig:mean 	0.54604074638337
scalar Network.dyn_peer[226] 	lookupHopsSig:mean 	15.75
scalar Network.dyn_peer[227] 	lookupTimeSig:mean 	1.82
scalar Network.dyn_peer[227] 	lookupStabilitySig:mean 	0.67432827930897
scalar Network.dyn_peer[227] 	lookupHopsSig:mean 	17.4
scalar Network.dyn_peer[228] 	lookupTimeSig:mean 	3.05
scalar Network.dyn_peer[228] 	lookupStabilitySig:mean 	0.4795685634017
scalar Network.dyn_peer[228] 	lookupHopsSig:mean 	29.75
scalar Network.dyn_peer[229] 	lookupTimeSig:mean 	2.3333333333333
scalar Network.dyn_peer[229] 	lookupStabilitySig:mean 	0.89235102788856
scalar Network.dyn_peer[229] 	lookupHopsSig:mean 	22.5
scalar Network.dyn_peer[230] 	lookupTimeSig:mean 	1.5875
scalar Network.dyn_peer[230] 	lookupStabilitySig:mean 	0.71559075103141
scalar Network.dyn_peer[230] 	lookupHopsSig:mean 	15
scalar Network.dyn_peer[231] 	lookupTimeSig:mean 	1.3333333333333
scalar Network.dyn_peer[231] 	lookupStabilitySig:mean 	0.57005173930277
scalar Network.dyn_peer[231] 	lookupHopsSig:mean 	12.5
scalar Network.dyn_peer[232] 	lookupTimeSig:mean 	2.375
scalar Network.dyn_peer[232] 	lookupStabilitySig:mean 	0.63214766047895
scalar Network.dyn_peer[232] 	lookupHopsSig:mean 	23
scalar Network.dyn_peer[233] 	lookupTimeSig:mean 	1.2166666666667
scalar Network.dyn_peer[233] 	lookupStabilitySig:mean 	0.69402197562158
scalar Network.dyn_peer[233] 	lookupHopsSig:mean 	11.333333333333
scalar Network.dyn_peer[234] 	lookupTimeSig:mean 	1.24
scalar Network.dyn_peer[234] 	lookupStabilitySig:mean 	0.68887438736856
scalar Network.dyn_peer[234] 	lookupHopsSig:mean 	11.6
scalar Network.dyn_peer[235] 	lookupTimeSig:mean 	2.48
scalar Network.dyn_peer[235] 	lookupStabilitySig:mean 	0.65869113299996
scalar Network.dyn_peer[235] 	lookupHopsSig:mean 	24
scalar Network.dyn_peer[236] 	lookupTimeSig:mean 	1.9625
scalar Network.dyn_peer[236] 	lookupStabilitySig:mean 	0.86986324260943
scalar Network.dyn_peer[236] 	lookupHopsSig:mean 	18.75
scalar Network.dyn_peer[237] 	lookupTimeSig:mean 	1.1111111111111
scalar Network.dyn_peer[237] 	lookupStabilitySig:mean 	0.80102995358821
scalar Network.dyn_peer[237] 	lookupHopsSig:mean 	10.222222222222
scalar Network.dyn_peer[238] 	lookupTimeSig:mean 	1.96
scalar Network.dyn_peer[238] 	lookupStabilitySig:mean 	0.92450174996629
scalar Network.dyn_peer[238] 	lookupHopsSig:mean 	18.7
scalar Network.dyn_peer[239] 	lookupTimeSig:mean 	2.11
scalar Network.dyn_peer[239] 	lookupStabilitySig:mean 	0.71472181165591
scalar Network.dyn_peer[239] 	lookupHopsSig:mean 	20.2
scalar Network.dyn_peer[240] 	lookupTimeSig:mean 	2.2
scalar Network.dyn_peer[240] 	lookupStabilitySig:mean 	0.24512986838818
scalar Network.dyn_peer[240] 	lookupHopsSig:mean 	21.5
scalar Network.dyn_peer[241] 	lookupTimeSig:mean 	1.0166666666667
scalar Network.dyn_peer[241] 	lookupStabilitySig:mean 	0.66859622082363
scalar Network.dyn_peer[241] 	lookupHopsSig:mean 	9.3333333333333
scalar Network.dyn_peer[242] 	lookupTimeSig:mean 	1.3
scalar Network.dyn_peer[242] 	lookupStabilitySig:mean 	0.48348306678236
scalar Network.dyn_peer[242] 	lookupHopsSig:mean 	12.25
scalar Network.dyn_peer[243] 	lookupTimeSig:mean 	2.78
scalar Network.dyn_peer[243] 	lookupStabilitySig:mean 	0.66020716447383
scalar Network.dyn_peer[243] 	lookupHopsSig:mean 	27
scalar Network.dyn_peer[244] 	lookupTimeSig:mean 	1.6
scalar Network.dyn_peer[244] 	lookupStabilitySig:mean 	0.94060390678615
scalar Network.dyn_peer[244] 	lookupHopsSig:mean 	15.090909090909
scalar Network.dyn_peer[245] 	lookupTimeSig:mean 	2.25
scalar Network.dyn_peer[245] 	lookupStabilitySig:mean 	0.77846972085536
scalar Network.dyn_peer[245] 	lookupHopsSig:mean 	21.75
scalar Network.dyn_peer[246] 	lookupTimeSig:mean 	2.4
scalar Network.dyn_peer[246] 	lookupStabilitySig:mean 	0.77766053130229
scalar Network.dyn_peer[246] 	lookupHopsSig:mean 	23.166666666667
scalar Network.dyn_peer[247] 	lookupTimeSig:mean 	1.825
scalar Network.dyn_peer[247] 	lookupStabilitySig:mean 	0.95183866433217
scalar Network.dyn_peer[247] 	lookupHopsSig:mean 	17.375
scalar Network.dyn_peer[248] 	lookupTimeSig:mean 	1.35
scalar Network.dyn_peer[248] 	lookupStabilitySig:mean 	0.22916666418314
scalar Network.dyn_peer[248] 	lookupHopsSig:mean 	13
scalar Network.dyn_peer[249] 	lookupTimeSig:mean 	3.5
scalar Network.dyn_peer[249] 	lookupStabilitySig:mean 	0.59003141522408
scalar Network.dyn_peer[249] 	lookupHopsSig:mean 	34.333333333333
scalar Network.dyn_peer[250] 	lookupTimeSig:mean 	1.3111111111111
scalar Network.dyn_peer[250] 	lookupStabilitySig:mean 	0.71410963849889
scalar Network.dyn_peer[250] 	lookupHopsSig:mean 	12.222222222222
scalar Network.dyn_peer[251] 	lookupTimeSig:mean 	1.38
scalar Network.dyn_peer[251] 	lookupStabilitySig:mean 	0.54970050826669
scalar Network.dyn_peer[251] 	lookupHopsSig:mean 	13
scalar Network.dyn_peer[252] 	lookupTimeSig:mean 	1.3666666666667
scalar Network.dyn_peer[252] 	lookupStabilitySig:mean 	0.52823580491046
scalar Network.dyn_peer[252] 	lookupHopsSig:mean 	12.833333333333
scalar Network.dyn_peer[253] 	lookupTimeSig:mean 	3.175
scalar Network.dyn_peer[253] 	lookupStabilitySig:mean 	0.33801782596856
scalar Network.dyn_peer[253] 	lookupHopsSig:mean 	31
scalar Network.dyn_peer[254] 	lookupTimeSig:mean 	1.6923076923077
scalar Network.dyn_peer[254] 	lookupStabilitySig:mean 	0.82660038274928
scalar Network.dyn_peer[254] 	lookupHopsSig:mean 	16
scalar Network.dyn_peer[255] 	lookupTimeSig:mean 	2.3454545454545
scalar Network.dyn_peer[255] 	lookupStabilitySig:mean 	0.79014214052057
scalar Network.dyn_peer[255] 	lookupHopsSig:mean 	22.545454545455
scalar Network.dyn_peer[256] 	lookupTimeSig:mean 	2.09
scalar Network.dyn_peer[256] 	lookupStabilitySig:mean 	0.95003472357057
scalar Network.dyn_peer[256] 	lookupHopsSig:mean 	20
scalar Network.dyn_peer[257] 	lookupTimeSig:mean 	1.3333333333333
scalar Network.dyn_peer[257] 	lookupStabilitySig:mean 	0.7083669770509
scalar Network.dyn_peer[257] 	lookupHopsSig:mean 	12.5
scalar Network.dyn_peer[258] 	lookupTimeSig:mean 	2.55
scalar Network.dyn_peer[258] 	lookupStabilitySig:mean 	0.35012790840119
scalar Network.dyn_peer[258] 	lookupHopsSig:mean 	24.75
scalar Network.dyn_peer[259] 	lookupTimeSig:mean 	1.8571428571429
scalar Network.dyn_peer[259] 	lookupStabilitySig:mean 	0.78420413205666
scalar Network.dyn_peer[259] 	lookupHopsSig:mean 	17.714285714286
scalar Network.dyn_peer[260] 	lookupTimeSig:mean 	2.1
scalar Network.dyn_peer[260] 	lookupStabilitySig:mean 	0.93362547305878
scalar Network.dyn_peer[260] 	lookupHopsSig:mean 	20.125
scalar Network.dyn_peer[261] 	lookupTimeSig:mean 	1.55
scalar Network.dyn_peer[261] 	lookupStabilitySig:mean 	0.55748733691871
scalar Network.dyn_peer[261] 	lookupHopsSig:mean 	14.75
scalar Network.dyn_peer[262] 	lookupTimeSig:mean 	3.2
scalar Network.dyn_peer[262] 	lookupStabilitySig:mean 	0.49810234208902
scalar Network.dyn_peer[262] 	lookupHopsSig:mean 	31.333333333333
scalar Network.dyn_peer[263] 	lookupTimeSig:mean 	1.7
scalar Network.dyn_peer[263] 	lookupStabilitySig:mean 	0.79936378053389
scalar Network.dyn_peer[263] 	lookupHopsSig:mean 	16.125
scalar Network.dyn_peer[264] 	lookupTimeSig:mean 	1.325
scalar Network.dyn_peer[264] 	lookupStabilitySig:mean 	0.56530559877865
scalar Network.dyn_peer[264] 	lookupHopsSig:mean 	12.5
scalar Network.dyn_peer[265] 	lookupTimeSig:mean 	1.8
scalar Network.dyn_peer[265] 	lookupStabilitySig:mean 	0.73943853611127
scalar Network.dyn_peer[265] 	lookupHopsSig:mean 	17.125
scalar Network.dyn_peer[266] 	lookupTimeSig:mean 	2.9666666666667
scalar Network.dyn_peer[266] 	lookupStabilitySig:mean 	0.37843935439984
scalar Network.dyn_peer[266] 	lookupHopsSig:mean 	29
scalar Network.dyn_peer[267] 	lookupTimeSig:mean 	2.3333333333333
scalar Network.dyn_peer[267] 	lookupStabilitySig:mean 	0.52851052271823
scalar Network.dyn_peer[267] 	lookupHopsSig:mean 	22.666666666667
scalar Network.dyn_peer[268] 	lookupTimeSig:mean 	3.8333333333333
scalar Network.dyn_peer[268] 	lookupStabilitySig:mean 	0.48203631738822
scalar Network.dyn_peer[268] 	lookupHopsSig:mean 	37.666666666667
scalar Network.dyn_peer[269] 	lookupTimeSig:mean 	1.2333333333333
scalar Network.dyn_peer[269] 	lookupStabilitySig:mean 	0.5929911651959
scalar Network.dyn_peer[269] 	lookupHopsSig:mean 	11.5
scalar Network.dyn_peer[270] 	lookupTimeSig:mean 	1.8666666666667
scalar Network.dyn_peer[270] 	lookupStabilitySig:mean 	0.93654611858074
scalar Network.dyn_peer[270] 	lookupHopsSig:mean 	17.75
scalar Network.dyn_peer[271] 	lookupTimeSig:mean 	1.7818181818182
scalar Network.dyn_peer[271] 	lookupStabilitySig:mean 	0.78084364389493
scalar Network.dyn_peer[271] 	lookupHopsSig:mean 	16.909090909091
scalar Network.dyn_peer[272] 	lookupTimeSig:mean 	2.6666666666667
scalar Network.dyn_peer[272] 	lookupStabilitySig:mean 	0.72197252760331
scalar Network.dyn_peer[272] 	lookupHopsSig:mean 	26
scalar Network.dyn_peer[273] 	lookupTimeSig:mean 	1.9333333333333
scalar Network.dyn_peer[273] 	lookupStabilitySig:mean 	0.40664551655451
scalar Network.dyn_peer[273] 	lookupHopsSig:mean 	18.666666666667
scalar Network.dyn_peer[274] 	lookupTimeSig:mean 	1.6571428571429
scalar Network.dyn_peer[274] 	lookupStabilitySig:mean 	0.91100701902594
scalar Network.dyn_peer[274] 	lookupHopsSig:mean 	15.714285714286
scalar Network.dyn_peer[275] 	lookupTimeSig:mean 	1.6
scalar Network.dyn_peer[275] 	lookupStabilitySig:mean 	0.64308698413273
scalar Network.dyn_peer[275] 	lookupHopsSig:mean 	15.333333333333
scalar Network.dyn_peer[276] 	lookupTimeSig:mean 	1.5
scalar Network.dyn_peer[276] 	lookupStabilitySig:mean 	0.77612557510535
scalar Network.dyn_peer[276] 	lookupHopsSig:mean 	14.111111111111
scalar Network.dyn_peer[277] 	lookupTimeSig:mean 	2.1833333333333
scalar Network.dyn_peer[277] 	lookupStabilitySig:mean 	0.80246401888629
scalar Network.dyn_peer[277] 	lookupHopsSig:mean 	21
scalar Network.dyn_peer[278] 	lookupTimeSig:mean 	1.6
scalar Network.dyn_peer[278] 	lookupStabilitySig:mean 	0.83167591039091
scalar Network.dyn_peer[278] 	lookupHopsSig:mean 	15.166666666667
scalar Network.dyn_peer[279] 	lookupTimeSig:mean 	1.74
scalar Network.dyn_peer[279] 	lookupStabilitySig:mean 	0.59933495521545
scalar Network.dyn_peer[279] 	lookupHopsSig:mean 	16.6
scalar Network.dyn_peer[280] 	lookupTimeSig:mean 	1.3
scalar Network.dyn_peer[280] 	lookupStabilitySig:mean 	0.43990112592777
scalar Network.dyn_peer[280] 	lookupHopsSig:mean 	12.333333333333
scalar Network.dyn_peer[281] 	lookupTimeSig:mean 	1.5
scalar Network.dyn_peer[281] 	lookupStabilitySig:mean 	0.87597666013365
scalar Network.dyn_peer[281] 	lookupHopsSig:mean 	14.083333333333
scalar Network.dyn_peer[282] 	lookupTimeSig:mean 	1.8857142857143
scalar Network.dyn_peer[282] 	lookupStabilitySig:mean 	0.76646230569375
scalar Network.dyn_peer[282] 	lookupHopsSig:mean 	18
scalar Network.dyn_peer[283] 	lookupTimeSig:mean 	2.4
scalar Network.dyn_peer[283] 	lookupStabilitySig:mean 	-0.022237211465836
scalar Network.dyn_peer[283] 	lookupHopsSig:mean 	23.5
scalar Network.dyn_peer[284] 	lookupTimeSig:mean 	1.94
scalar Network.dyn_peer[284] 	lookupStabilitySig:mean 	0.75799107179046
scalar Network.dyn_peer[284] 	lookupHopsSig:mean 	18.6
scalar Network.dyn_peer[285] 	lookupTimeSig:mean 	1.28
scalar Network.dyn_peer[285] 	lookupStabilitySig:mean 	0.69801195263863
scalar Network.dyn_peer[285] 	lookupHopsSig:mean 	12
scalar Network.dyn_peer[286] 	lookupTimeSig:mean 	1.575
scalar Network.dyn_peer[286] 	lookupStabilitySig:mean 	0.70590595947579
scalar Network.dyn_peer[286] 	lookupHopsSig:mean 	14.875
scalar Network.dyn_peer[287] 	lookupTimeSig:mean 	2.725
scalar Network.dyn_peer[287] 	lookupStabilitySig:mean 	0.42922120727599
scalar Network.dyn_peer[287] 	lookupHopsSig:mean 	26.5
scalar Network.dyn_peer[288] 	lookupTimeSig:mean 	1.4153846153846
scalar Network.dyn_peer[288] 	lookupStabilitySig:mean 	0.84848631660526
scalar Network.dyn_peer[288] 	lookupHopsSig:mean 	13.230769230769
scalar Network.dyn_peer[289] 	lookupTimeSig:mean 	2.0444444444444
scalar Network.dyn_peer[289] 	lookupStabilitySig:mean 	0.87506172273101
scalar Network.dyn_peer[289] 	lookupHopsSig:mean 	19.555555555556
scalar Network.dyn_peer[290] 	lookupTimeSig:mean 	2.3416666666667
scalar Network.dyn_peer[290] 	lookupStabilitySig:mean 	0.86324799146193
scalar Network.dyn_peer[290] 	lookupHopsSig:mean 	22.5
scalar Network.dyn_peer[291] 	lookupTimeSig:mean 	2.4714285714286
scalar Network.dyn_peer[291] 	lookupStabilitySig:mean 	0.87349938654474
scalar Network.dyn_peer[291] 	lookupHopsSig:mean 	23.857142857143
scalar Network.dyn_peer[292] 	lookupTimeSig:mean 	2.2375
scalar Network.dyn_peer[292] 	lookupStabilitySig:mean 	0.92471788451076
scalar Network.dyn_peer[292] 	lookupHopsSig:mean 	21.5
scalar Network.dyn_peer[293] 	lookupTimeSig:mean 	2.3333333333333
scalar Network.dyn_peer[293] 	lookupStabilitySig:mean 	0.53627881407738
scalar Network.dyn_peer[293] 	lookupHopsSig:mean 	22.666666666667
scalar Network.dyn_peer[294] 	lookupTimeSig:mean 	2.2571428571429
scalar Network.dyn_peer[294] 	lookupStabilitySig:mean 	0.92370730505458
scalar Network.dyn_peer[294] 	lookupHopsSig:mean 	21.714285714286
scalar Network.dyn_peer[295] 	lookupTimeSig:mean 	2.0555555555556
scalar Network.dyn_peer[295] 	lookupStabilitySig:mean 	0.88503221474174
scalar Network.dyn_peer[295] 	lookupHopsSig:mean 	19.666666666667
scalar Network.dyn_peer[296] 	lookupTimeSig:mean 	1.9857142857143
scalar Network.dyn_peer[296] 	lookupStabilitySig:mean 	0.94379131283079
scalar Network.dyn_peer[296] 	lookupHopsSig:mean 	19
scalar Network.dyn_peer[297] 	lookupTimeSig:mean 	2.7666666666667
scalar Network.dyn_peer[297] 	lookupStabilitySig:mean 	0.59724622964859
scalar Network.dyn_peer[297] 	lookupHopsSig:mean 	27
scalar Network.dyn_peer[298] 	lookupTimeSig:mean 	2.2666666666667
scalar Network.dyn_peer[298] 	lookupStabilitySig:mean 	0.43059714635213
scalar Network.dyn_peer[298] 	lookupHopsSig:mean 	22
scalar Network.dyn_peer[299] 	lookupTimeSig:mean 	1.1
scalar Network.dyn_peer[299] 	lookupStabilitySig:mean 	0.92736048249274
scalar Network.dyn_peer[299] 	lookupHopsSig:mean 	10.090909090909
scalar Network.dyn_peer[300] 	lookupTimeSig:mean 	2.45
scalar Network.dyn_peer[300] 	lookupStabilitySig:mean 	0.61242550984025
scalar Network.dyn_peer[300] 	lookupHopsSig:mean 	23.75
scalar Network.dyn_peer[301] 	lookupTimeSig:mean 	1.075
scalar Network.dyn_peer[301] 	lookupStabilitySig:mean 	0.4478359632194
scalar Network.dyn_peer[301] 	lookupHopsSig:mean 	10
scalar Network.dyn_peer[302] 	lookupTimeSig:mean 	1.9666666666667
scalar Network.dyn_peer[302] 	lookupStabilitySig:mean 	0.79589044783885
scalar Network.dyn_peer[302] 	lookupHopsSig:mean 	18.833333333333
scalar Network.dyn_peer[303] 	lookupTimeSig:mean 	1.8
scalar Network.dyn_peer[303] 	lookupStabilitySig:mean 	0.75280239965234
scalar Network.dyn_peer[303] 	lookupHopsSig:mean 	17.142857142857
scalar Network.dyn_peer[304] 	lookupTimeSig:mean 	2.44
scalar Network.dyn_peer[304] 	lookupStabilitySig:mean 	0.85055459975265
scalar Network.dyn_peer[304] 	lookupHopsSig:mean 	23.5
scalar Network.dyn_peer[305] 	lookupTimeSig:mean 	3.2
scalar Network.dyn_peer[305] 	lookupStabilitySig:mean 	0.39869117240111
scalar Network.dyn_peer[305] 	lookupHopsSig:mean 	31.333333333333
scalar Network.dyn_peer[306] 	lookupTimeSig:mean 	2.125
scalar Network.dyn_peer[306] 	lookupStabilitySig:mean 	0.75949152559042
scalar Network.dyn_peer[306] 	lookupHopsSig:mean 	20.5
scalar Network.dyn_peer[307] 	lookupTimeSig:mean 	1.7
scalar Network.dyn_peer[307] 	lookupStabilitySig:mean 	0.67963708518073
scalar Network.dyn_peer[307] 	lookupHopsSig:mean 	16.25
scalar Network.dyn_peer[308] 	lookupTimeSig:mean 	2.3142857142857
scalar Network.dyn_peer[308] 	lookupStabilitySig:mean 	0.70661817278181
scalar Network.dyn_peer[308] 	lookupHopsSig:mean 	22.285714285714
scalar Network.dyn_peer[309] 	lookupTimeSig:mean 	1.0833333333333
scalar Network.dyn_peer[309] 	lookupStabilitySig:mean 	0.58332344361891
scalar Network.dyn_peer[309] 	lookupHopsSig:mean 	10
scalar Network.dyn_peer[310] 	lookupTimeSig:mean 	1.6
scalar Network.dyn_peer[310] 	lookupStabilitySig:mean 	0.62926427802692
scalar Network.dyn_peer[310] 	lookupHopsSig:mean 	15.166666666667
scalar Network.dyn_peer[311] 	lookupTimeSig:mean 	1.15
scalar Network.dyn_peer[311] 	lookupStabilitySig:mean 	0.5495747923851
scalar Network.dyn_peer[311] 	lookupHopsSig:mean 	10.666666666667
scalar Network.dyn_peer[312] 	lookupTimeSig:mean 	1.5333333333333
scalar Network.dyn_peer[312] 	lookupStabilitySig:mean 	0.83365926948479
scalar Network.dyn_peer[312] 	lookupHopsSig:mean 	14.444444444444
scalar Network.dyn_peer[313] 	lookupTimeSig:mean 	0.675
scalar Network.dyn_peer[313] 	lookupStabilitySig:mean 	0.52057207375765
scalar Network.dyn_peer[313] 	lookupHopsSig:mean 	6
scalar Network.dyn_peer[314] 	lookupTimeSig:mean 	1.4
scalar Network.dyn_peer[314] 	lookupStabilitySig:mean 	0.55522033758461
scalar Network.dyn_peer[314] 	lookupHopsSig:mean 	13.25
scalar Network.dyn_peer[315] 	lookupTimeSig:mean 	2.4833333333333
scalar Network.dyn_peer[315] 	lookupStabilitySig:mean 	0.92723744610945
scalar Network.dyn_peer[315] 	lookupHopsSig:mean 	24
scalar Network.dyn_peer[316] 	lookupTimeSig:mean 	1.12
scalar Network.dyn_peer[316] 	lookupStabilitySig:mean 	0.48628787696362
scalar Network.dyn_peer[316] 	lookupHopsSig:mean 	10.4
scalar Network.dyn_peer[317] 	lookupTimeSig:mean 	1.2555555555556
scalar Network.dyn_peer[317] 	lookupStabilitySig:mean 	0.72341788042751
scalar Network.dyn_peer[317] 	lookupHopsSig:mean 	11.666666666667
scalar Network.dyn_peer[318] 	lookupTimeSig:mean 	1.3166666666667
scalar Network.dyn_peer[318] 	lookupStabilitySig:mean 	0.70114664640278
scalar Network.dyn_peer[318] 	lookupHopsSig:mean 	12.333333333333
scalar Network.dyn_peer[319] 	lookupTimeSig:mean 	4.05
scalar Network.dyn_peer[319] 	lookupStabilitySig:mean 	0.83002633182332
scalar Network.dyn_peer[319] 	lookupHopsSig:mean 	39.75
scalar Network.dyn_peer[320] 	lookupTimeSig:mean 	2.0166666666667
scalar Network.dyn_peer[320] 	lookupStabilitySig:mean 	0.67770225306352
scalar Network.dyn_peer[320] 	lookupHopsSig:mean 	19.333333333333
scalar Network.dyn_peer[321] 	lookupTimeSig:mean 	3.18
scalar Network.dyn_peer[321] 	lookupStabilitySig:mean 	0.70771789178252
scalar Network.dyn_peer[321] 	lookupHopsSig:mean 	31
scalar Network.dyn_peer[322] 	lookupTimeSig:mean 	2.4857142857143
scalar Network.dyn_peer[322] 	lookupStabilitySig:mean 	0.93648905373578
scalar Network.dyn_peer[322] 	lookupHopsSig:mean 	24
scalar Network.dyn_peer[323] 	lookupTimeSig:mean 	2.275
scalar Network.dyn_peer[323] 	lookupStabilitySig:mean 	0.82418146164855
scalar Network.dyn_peer[323] 	lookupHopsSig:mean 	21.875
scalar Network.dyn_peer[324] 	lookupTimeSig:mean 	1.1833333333333
scalar Network.dyn_peer[324] 	lookupStabilitySig:mean 	0.6948577267273
scalar Network.dyn_peer[324] 	lookupHopsSig:mean 	11
scalar Network.dyn_peer[325] 	lookupTimeSig:mean 	2.85
scalar Network.dyn_peer[325] 	lookupStabilitySig:mean 	0.24567899107933
scalar Network.dyn_peer[325] 	lookupHopsSig:mean 	28
scalar Network.dyn_peer[326] 	lookupTimeSig:mean 	1.88
scalar Network.dyn_peer[326] 	lookupStabilitySig:mean 	0.836531112995
scalar Network.dyn_peer[326] 	lookupHopsSig:mean 	17.9
scalar Network.dyn_peer[327] 	lookupTimeSig:mean 	0.95
scalar Network.dyn_peer[327] 	lookupStabilitySig:mean 	0.58531008474529
scalar Network.dyn_peer[327] 	lookupHopsSig:mean 	8.75
scalar Network.dyn_peer[328] 	lookupTimeSig:mean 	2.25
scalar Network.dyn_peer[328] 	lookupStabilitySig:mean 	0.96467159315944
scalar Network.dyn_peer[328] 	lookupHopsSig:mean 	21.6
scalar Network.dyn_peer[329] 	lookupTimeSig:mean 	1.45
scalar Network.dyn_peer[329] 	lookupStabilitySig:mean 	0.88265505367114
scalar Network.dyn_peer[329] 	lookupHopsSig:mean 	13.583333333333
scalar Network.dyn_peer[330] 	lookupTimeSig:mean 	1.4777777777778
scalar Network.dyn_peer[330] 	lookupStabilitySig:mean 	0.92276912430922
scalar Network.dyn_peer[330] 	lookupHopsSig:mean 	13.888888888889
scalar Network.dyn_peer[331] 	lookupTimeSig:mean 	2.24
scalar Network.dyn_peer[331] 	lookupStabilitySig:mean 	0.61124853640795
scalar Network.dyn_peer[331] 	lookupHopsSig:mean 	21.6
scalar Network.dyn_peer[332] 	lookupTimeSig:mean 	1.275
scalar Network.dyn_peer[332] 	lookupStabilitySig:mean 	0.50099999830127
scalar Network.dyn_peer[332] 	lookupHopsSig:mean 	12
scalar Network.dyn_peer[333] 	lookupTimeSig:mean 	2.0666666666667
scalar Network.dyn_peer[333] 	lookupStabilitySig:mean 	0.66953145464261
scalar Network.dyn_peer[333] 	lookupHopsSig:mean 	20
scalar Network.dyn_peer[334] 	lookupTimeSig:mean 	2.74
scalar Network.dyn_peer[334] 	lookupStabilitySig:mean 	0.70676734372973
scalar Network.dyn_peer[334] 	lookupHopsSig:mean 	26.6
scalar Network.dyn_peer[335] 	lookupTimeSig:mean 	1.78
scalar Network.dyn_peer[335] 	lookupStabilitySig:mean 	0.87415583506227
scalar Network.dyn_peer[335] 	lookupHopsSig:mean 	16.9
scalar Network.dyn_peer[336] 	lookupTimeSig:mean 	2.65
scalar Network.dyn_peer[336] 	lookupStabilitySig:mean 	0.96515648383647
scalar Network.dyn_peer[336] 	lookupHopsSig:mean 	25.6
scalar Network.dyn_peer[337] 	lookupTimeSig:mean 	2.425
scalar Network.dyn_peer[337] 	lookupStabilitySig:mean 	0.42680210620165
scalar Network.dyn_peer[337] 	lookupHopsSig:mean 	23.5
scalar Network.dyn_peer[338] 	lookupTimeSig:mean 	1.275
scalar Network.dyn_peer[338] 	lookupStabilitySig:mean 	0.43603970110416
scalar Network.dyn_peer[338] 	lookupHopsSig:mean 	12
scalar Network.dyn_peer[339] 	lookupTimeSig:mean 	1.95
scalar Network.dyn_peer[339] 	lookupStabilitySig:mean 	0.51985957287252
scalar Network.dyn_peer[339] 	lookupHopsSig:mean 	18.75
scalar Network.dyn_peer[340] 	lookupTimeSig:mean 	1.5714285714286
scalar Network.dyn_peer[340] 	lookupStabilitySig:mean 	0.75337888114154
scalar Network.dyn_peer[340] 	lookupHopsSig:mean 	14.857142857143
scalar Network.dyn_peer[341] 	lookupTimeSig:mean 	1.8833333333333
scalar Network.dyn_peer[341] 	lookupStabilitySig:mean 	0.87159349303693
scalar Network.dyn_peer[341] 	lookupHopsSig:mean 	18
scalar Network.dyn_peer[342] 	lookupTimeSig:mean 	2.775
scalar Network.dyn_peer[342] 	lookupStabilitySig:mean 	0.58947617374361
scalar Network.dyn_peer[342] 	lookupHopsSig:mean 	27
scalar Network.dyn_peer[343] 	lookupTimeSig:mean 	1.675
scalar Network.dyn_peer[343] 	lookupStabilitySig:mean 	0.946013099902
scalar Network.dyn_peer[343] 	lookupHopsSig:mean 	15.833333333333
scalar Network.dyn_peer[344] 	lookupTimeSig:mean 	2.0166666666667
scalar Network.dyn_peer[344] 	lookupStabilitySig:mean 	0.85876642276223
scalar Network.dyn_peer[344] 	lookupHopsSig:mean 	19.333333333333
scalar Network.dyn_peer[345] 	lookupTimeSig:mean 	3.2333333333333
scalar Network.dyn_peer[345] 	lookupStabilitySig:mean 	0.6883169238766
scalar Network.dyn_peer[345] 	lookupHopsSig:mean 	31.666666666667
scalar Network.dyn_peer[346] 	lookupTimeSig:mean 	1.9444444444444
scalar Network.dyn_peer[346] 	lookupStabilitySig:mean 	0.95093842875212
scalar Network.dyn_peer[346] 	lookupHopsSig:mean 	18.555555555556
scalar Network.dyn_peer[347] 	lookupTimeSig:mean 	2.95
scalar Network.dyn_peer[347] 	lookupStabilitySig:mean 	0.29221491515636
scalar Network.dyn_peer[347] 	lookupHopsSig:mean 	29
scalar Network.dyn_peer[348] 	lookupTimeSig:mean 	3.25
scalar Network.dyn_peer[348] 	lookupStabilitySig:mean 	0.6008064635098
scalar Network.dyn_peer[348] 	lookupHopsSig:mean 	32
scalar Network.dyn_peer[349] 	lookupTimeSig:mean 	4.0333333333333
scalar Network.dyn_peer[349] 	lookupStabilitySig:mean 	0.84365034972628
scalar Network.dyn_peer[349] 	lookupHopsSig:mean 	39.666666666667
scalar Network.dyn_peer[350] 	lookupTimeSig:mean 	0.8
scalar Network.dyn_peer[350] 	lookupStabilitySig:mean 	0.57559618307278
scalar Network.dyn_peer[350] 	lookupHopsSig:mean 	7.25
scalar Network.dyn_peer[351] 	lookupTimeSig:mean 	1.875
scalar Network.dyn_peer[351] 	lookupStabilitySig:mean 	0.53091729432344
scalar Network.dyn_peer[351] 	lookupHopsSig:mean 	18
scalar Network.dyn_peer[352] 	lookupTimeSig:mean 	1.9428571428571
scalar Network.dyn_peer[352] 	lookupStabilitySig:mean 	0.78712398319372
scalar Network.dyn_peer[352] 	lookupHopsSig:mean 	18.571428571429
scalar Network.dyn_peer[353] 	lookupTimeSig:mean 	1.6555555555556
scalar Network.dyn_peer[353] 	lookupStabilitySig:mean 	0.82388915121555
scalar Network.dyn_peer[353] 	lookupHopsSig:mean 	15.666666666667
scalar Network.dyn_peer[354] 	lookupTimeSig:mean 	2.25
scalar Network.dyn_peer[354] 	lookupStabilitySig:mean 	0.70922355167568
scalar Network.dyn_peer[354] 	lookupHopsSig:mean 	21.75
scalar Network.dyn_peer[355] 	lookupTimeSig:mean 	1.0833333333333
scalar Network.dyn_peer[355] 	lookupStabilitySig:mean 	0.63956668569396
scalar Network.dyn_peer[355] 	lookupHopsSig:mean 	10
scalar Network.dyn_peer[356] 	lookupTimeSig:mean 	1.9666666666667
scalar Network.dyn_peer[356] 	lookupStabilitySig:mean 	0.95868020877242
scalar Network.dyn_peer[356] 	lookupHopsSig:mean 	18.777777777778
scalar Network.dyn_peer[357] 	lookupTimeSig:mean 	3.125
scalar Network.dyn_peer[357] 	lookupStabilitySig:mean 	0.70540263829753
scalar Network.dyn_peer[357] 	lookupHopsSig:mean 	30.5
scalar Network.dyn_peer[358] 	lookupTimeSig:mean 	1.4833333333333
scalar Network.dyn_peer[358] 	lookupStabilitySig:mean 	0.57157609177132
scalar Network.dyn_peer[358] 	lookupHopsSig:mean 	14
scalar Network.dyn_peer[359] 	lookupTimeSig:mean 	1.9625
scalar Network.dyn_peer[359] 	lookupStabilitySig:mean 	0.95410891443316
scalar Network.dyn_peer[359] 	lookupHopsSig:mean 	18.75
scalar Network.dyn_peer[360] 	lookupTimeSig:mean 	0.71666666666667
scalar Network.dyn_peer[360] 	lookupStabilitySig:mean 	0.6206298917532
scalar Network.dyn_peer[360] 	lookupHopsSig:mean 	6.3333333333333
scalar Network.dyn_peer[361] 	lookupTimeSig:mean 	1.2666666666667
scalar Network.dyn_peer[361] 	lookupStabilitySig:mean 	0.47067640970151
scalar Network.dyn_peer[361] 	lookupHopsSig:mean 	12
scalar Network.dyn_peer[362] 	lookupTimeSig:mean 	2.2428571428571
scalar Network.dyn_peer[362] 	lookupStabilitySig:mean 	0.92765366818224
scalar Network.dyn_peer[362] 	lookupHopsSig:mean 	21.571428571429
scalar Network.dyn_peer[363] 	lookupTimeSig:mean 	1.875
scalar Network.dyn_peer[363] 	lookupStabilitySig:mean 	0.56132271327078
scalar Network.dyn_peer[363] 	lookupHopsSig:mean 	18
scalar Network.dyn_peer[364] 	lookupTimeSig:mean 	1.1
scalar Network.dyn_peer[364] 	lookupStabilitySig:mean 	0.66320539824665
scalar Network.dyn_peer[364] 	lookupHopsSig:mean 	10.142857142857
scalar Network.dyn_peer[365] 	lookupTimeSig:mean 	1.5333333333333
scalar Network.dyn_peer[365] 	lookupStabilitySig:mean 	0.33298850804567
scalar Network.dyn_peer[365] 	lookupHopsSig:mean 	14.666666666667
scalar Network.dyn_peer[366] 	lookupTimeSig:mean 	1.9
scalar Network.dyn_peer[366] 	lookupStabilitySig:mean 	0.68996930432816
scalar Network.dyn_peer[366] 	lookupHopsSig:mean 	18.166666666667
scalar Network.dyn_peer[367] 	lookupTimeSig:mean 	3.05
scalar Network.dyn_peer[367] 	lookupStabilitySig:mean 	0.44782608747482
scalar Network.dyn_peer[367] 	lookupHopsSig:mean 	30
scalar Network.dyn_peer[368] 	lookupTimeSig:mean 	2.0428571428571
scalar Network.dyn_peer[368] 	lookupStabilitySig:mean 	0.73179216742782
scalar Network.dyn_peer[368] 	lookupHopsSig:mean 	19.571428571429
scalar Network.dyn_peer[369] 	lookupTimeSig:mean 	2.1333333333333
scalar Network.dyn_peer[369] 	lookupStabilitySig:mean 	0.39914644944171
scalar Network.dyn_peer[369] 	lookupHopsSig:mean 	20.666666666667
scalar Network.dyn_peer[370] 	lookupTimeSig:mean 	1.8571428571429
scalar Network.dyn_peer[370] 	lookupStabilitySig:mean 	0.93198198971472
scalar Network.dyn_peer[370] 	lookupHopsSig:mean 	17.714285714286
scalar Network.dyn_peer[371] 	lookupTimeSig:mean 	2.3
scalar Network.dyn_peer[371] 	lookupStabilitySig:mean 	0.90321788218405
scalar Network.dyn_peer[371] 	lookupHopsSig:mean 	22.142857142857
scalar Network.dyn_peer[372] 	lookupTimeSig:mean 	2.1833333333333
scalar Network.dyn_peer[372] 	lookupStabilitySig:mean 	0.81750827220579
scalar Network.dyn_peer[372] 	lookupHopsSig:mean 	21
scalar Network.dyn_peer[373] 	lookupTimeSig:mean 	1.5
scalar Network.dyn_peer[373] 	lookupStabilitySig:mean 	0.80252912691371
scalar Network.dyn_peer[373] 	lookupHopsSig:mean 	14.090909090909
scalar Network.dyn_peer[374] 	lookupTimeSig:mean 	1.9666666666667
scalar Network.dyn_peer[374] 	lookupStabilitySig:mean 	0.80080897702525
scalar Network.dyn_peer[374] 	lookupHopsSig:mean 	18.833333333333
scalar Network.dyn_peer[375] 	lookupTimeSig:mean 	1.8333333333333
scalar Network.dyn_peer[375] 	lookupStabilitySig:mean 	0.63023947039619
scalar Network.dyn_peer[375] 	lookupHopsSig:mean 	17.5
scalar Network.dyn_peer[376] 	lookupTimeSig:mean 	1.18
scalar Network.dyn_peer[376] 	lookupStabilitySig:mean 	0.58885240107775
scalar Network.dyn_peer[376] 	lookupHopsSig:mean 	11
scalar Network.dyn_peer[377] 	lookupTimeSig:mean 	2.78
scalar Network.dyn_peer[377] 	lookupStabilitySig:mean 	0.88606330156326
scalar Network.dyn_peer[377] 	lookupHopsSig:mean 	27
scalar Network.dyn_peer[378] 	lookupTimeSig:mean 	2.3333333333333
scalar Network.dyn_peer[378] 	lookupStabilitySig:mean 	0.89033227020668
scalar Network.dyn_peer[378] 	lookupHopsSig:mean 	22.444444444444
scalar Network.dyn_peer[379] 	lookupTimeSig:mean 	2.575
scalar Network.dyn_peer[379] 	lookupStabilitySig:mean 	0.9148589882534
scalar Network.dyn_peer[379] 	lookupHopsSig:mean 	25
scalar Network.dyn_peer[380] 	lookupTimeSig:mean 	1.3
scalar Network.dyn_peer[380] 	lookupStabilitySig:mean 	0.63720344565809
scalar Network.dyn_peer[380] 	lookupHopsSig:mean 	12.25
scalar Network.dyn_peer[381] 	lookupTimeSig:mean 	4.8333333333333
scalar Network.dyn_peer[381] 	lookupStabilitySig:mean 	0.45776832600435
scalar Network.dyn_peer[381] 	lookupHopsSig:mean 	47.666666666667
scalar Network.dyn_peer[382] 	lookupTimeSig:mean 	4.8666666666667
scalar Network.dyn_peer[382] 	lookupStabilitySig:mean 	0.88030980030696
scalar Network.dyn_peer[382] 	lookupHopsSig:mean 	48
scalar Network.dyn_peer[383] 	lookupTimeSig:mean 	2.1333333333333
scalar Network.dyn_peer[383] 	lookupStabilitySig:mean 	0.69809720665216
scalar Network.dyn_peer[383] 	lookupHopsSig:mean 	20.666666666667
scalar Network.dyn_peer[384] 	lookupTimeSig:mean 	2.475
scalar Network.dyn_peer[384] 	lookupStabilitySig:mean 	0.65859266836196
scalar Network.dyn_peer[384] 	lookupHopsSig:mean 	24
scalar Network.dyn_peer[385] 	lookupTimeSig:mean 	2.14
scalar Network.dyn_peer[385] 	lookupStabilitySig:mean 	0.59538076892495
scalar Network.dyn_peer[385] 	lookupHopsSig:mean 	20.6
scalar Network.dyn_peer[386] 	lookupTimeSig:mean 	1.4083333333333
scalar Network.dyn_peer[386] 	lookupStabilitySig:mean 	0.87192069246278
scalar Network.dyn_peer[386] 	lookupHopsSig:mean 	13.166666666667
scalar Network.dyn_peer[387] 	lookupTimeSig:mean 	2.4
scalar Network.dyn_peer[387] 	lookupStabilitySig:mean 	0.64411935769022
scalar Network.dyn_peer[387] 	lookupHopsSig:mean 	23.25
scalar Network.dyn_peer[388] 	lookupTimeSig:mean 	1.84
scalar Network.dyn_peer[388] 	lookupStabilitySig:mean 	0.68418870083988
scalar Network.dyn_peer[388] 	lookupHopsSig:mean 	17.6
scalar Network.dyn_peer[389] 	lookupTimeSig:mean 	2.45
scalar Network.dyn_peer[389] 	lookupStabilitySig:mean 	0.49131332524121
scalar Network.dyn_peer[389] 	lookupHopsSig:mean 	23.75
scalar Network.dyn_peer[390] 	lookupTimeSig:mean 	1.4
scalar Network.dyn_peer[390] 	lookupStabilitySig:mean 	0.33806084096432
scalar Network.dyn_peer[390] 	lookupHopsSig:mean 	13.333333333333
scalar Network.dyn_peer[391] 	lookupTimeSig:mean 	2.16
scalar Network.dyn_peer[391] 	lookupStabilitySig:mean 	0.80326475724578
scalar Network.dyn_peer[391] 	lookupHopsSig:mean 	20.8
scalar Network.dyn_peer[392] 	lookupTimeSig:mean 	4.4666666666667
scalar Network.dyn_peer[392] 	lookupStabilitySig:mean 	0.54162037620942
scalar Network.dyn_peer[392] 	lookupHopsSig:mean 	44
scalar Network.dyn_peer[393] 	lookupTimeSig:mean 	1.4714285714286
scalar Network.dyn_peer[393] 	lookupStabilitySig:mean 	0.7594409928258
scalar Network.dyn_peer[393] 	lookupHopsSig:mean 	13.857142857143
scalar Network.dyn_peer[394] 	lookupTimeSig:mean 	2.55
scalar Network.dyn_peer[394] 	lookupStabilitySig:mean 	0.28225000202656
scalar Network.dyn_peer[394] 	lookupHopsSig:mean 	25
scalar Network.dyn_peer[395] 	lookupTimeSig:mean 	0.9
scalar Network.dyn_peer[395] 	lookupStabilitySig:mean 	0.47222220400969
scalar Network.dyn_peer[395] 	lookupHopsSig:mean 	8.3333333333333
scalar Network.dyn_peer[396] 	lookupTimeSig:mean 	2.475
scalar Network.dyn_peer[396] 	lookupStabilitySig:mean 	0.57452971488237
scalar Network.dyn_peer[396] 	lookupHopsSig:mean 	24
scalar Network.dyn_peer[397] 	lookupTimeSig:mean 	2.025
scalar Network.dyn_peer[397] 	lookupStabilitySig:mean 	0.87093544844538
scalar Network.dyn_peer[397] 	lookupHopsSig:mean 	19.5
scalar Network.dyn_peer[398] 	lookupTimeSig:mean 	1.2727272727273
scalar Network.dyn_peer[398] 	lookupStabilitySig:mean 	0.83220885374414
scalar Network.dyn_peer[398] 	lookupHopsSig:mean 	11.818181818182
scalar Network.dyn_peer[399] 	lookupTimeSig:mean 	1.6833333333333
scalar Network.dyn_peer[399] 	lookupStabilitySig:mean 	0.83337826980278
scalar Network.dyn_peer[399] 	lookupHopsSig:mean 	16
scalar Network.dyn_peer[400] 	lookupTimeSig:mean 	2.36
scalar Network.dyn_peer[400] 	lookupStabilitySig:mean 	0.92212328314781
scalar Network.dyn_peer[400] 	lookupHopsSig:mean 	22.8
scalar Network.dyn_peer[401] 	lookupTimeSig:mean 	2.25
scalar Network.dyn_peer[401] 	lookupStabilitySig:mean 	0.9012402704296
scalar Network.dyn_peer[401] 	lookupHopsSig:mean 	21.666666666667
scalar Network.dyn_peer[402] 	lookupTimeSig:mean 	1.5307692307692
scalar Network.dyn_peer[402] 	lookupStabilitySig:mean 	0.8426019850975
scalar Network.dyn_peer[402] 	lookupHopsSig:mean 	14.384615384615
scalar Network.dyn_peer[403] 	lookupTimeSig:mean 	1.4
scalar Network.dyn_peer[403] 	lookupStabilitySig:mean 	0.93457984427611
scalar Network.dyn_peer[403] 	lookupHopsSig:mean 	13.111111111111
scalar Network.dyn_peer[404] 	lookupTimeSig:mean 	1.4666666666667
scalar Network.dyn_peer[404] 	lookupStabilitySig:mean 	0.72410267932961
scalar Network.dyn_peer[404] 	lookupHopsSig:mean 	13.833333333333
scalar Network.dyn_peer[405] 	lookupTimeSig:mean 	1.5142857142857
scalar Network.dyn_peer[405] 	lookupStabilitySig:mean 	0.7485413333135
scalar Network.dyn_peer[405] 	lookupHopsSig:mean 	14.285714285714
scalar Network.dyn_peer[406] 	lookupTimeSig:mean 	2.0571428571429
scalar Network.dyn_peer[406] 	lookupStabilitySig:mean 	0.88834433563586
scalar Network.dyn_peer[406] 	lookupHopsSig:mean 	19.714285714286
scalar Network.dyn_peer[407] 	lookupTimeSig:mean 	3.9333333333333
scalar Network.dyn_peer[407] 	lookupStabilitySig:mean 	0.64413547764222
scalar Network.dyn_peer[407] 	lookupHopsSig:mean 	38.666666666667
scalar Network.dyn_peer[408] 	lookupTimeSig:mean 	1.5
scalar Network.dyn_peer[408] 	lookupStabilitySig:mean 	0.73091651573777
scalar Network.dyn_peer[408] 	lookupHopsSig:mean 	14.2
scalar Network.dyn_peer[409] 	lookupTimeSig:mean 	1.5857142857143
scalar Network.dyn_peer[409] 	lookupStabilitySig:mean 	0.93332718307751
scalar Network.dyn_peer[409] 	lookupHopsSig:mean 	15
scalar Network.dyn_peer[410] 	lookupTimeSig:mean 	1.65
scalar Network.dyn_peer[410] 	lookupStabilitySig:mean 	0.74246510211378
scalar Network.dyn_peer[410] 	lookupHopsSig:mean 	15.75
scalar Network.dyn_peer[411] 	lookupTimeSig:mean 	2.66
scalar Network.dyn_peer[411] 	lookupStabilitySig:mean 	0.9090568266809
scalar Network.dyn_peer[411] 	lookupHopsSig:mean 	25.8
scalar Network.dyn_peer[412] 	lookupTimeSig:mean 	1.9428571428571
scalar Network.dyn_peer[412] 	lookupStabilitySig:mean 	0.85770612156817
scalar Network.dyn_peer[412] 	lookupHopsSig:mean 	18.571428571429
scalar Network.dyn_peer[413] 	lookupTimeSig:mean 	5.9
scalar Network.dyn_peer[413] 	lookupStabilitySig:mean 	0.24173667281866
scalar Network.dyn_peer[413] 	lookupHopsSig:mean 	58.5
scalar Network.dyn_peer[414] 	lookupTimeSig:mean 	1.9857142857143
scalar Network.dyn_peer[414] 	lookupStabilitySig:mean 	0.90270620611097
scalar Network.dyn_peer[414] 	lookupHopsSig:mean 	19
scalar Network.dyn_peer[415] 	lookupTimeSig:mean 	2.18
scalar Network.dyn_peer[415] 	lookupStabilitySig:mean 	0.86168775754049
scalar Network.dyn_peer[415] 	lookupHopsSig:mean 	20.9
scalar Network.dyn_peer[416] 	lookupTimeSig:mean 	2.175
scalar Network.dyn_peer[416] 	lookupStabilitySig:mean 	0.81868519308046
scalar Network.dyn_peer[416] 	lookupHopsSig:mean 	21
scalar Network.dyn_peer[417] 	lookupTimeSig:mean 	1.2333333333333
scalar Network.dyn_peer[417] 	lookupStabilitySig:mean 	0.84178371098824
scalar Network.dyn_peer[417] 	lookupHopsSig:mean 	11.5
scalar Network.dyn_peer[418] 	lookupTimeSig:mean 	1.925
scalar Network.dyn_peer[418] 	lookupStabilitySig:mean 	0.59283333830535
scalar Network.dyn_peer[418] 	lookupHopsSig:mean 	18.5
scalar Network.dyn_peer[419] 	lookupTimeSig:mean 	1.6428571428571
scalar Network.dyn_peer[419] 	lookupStabilitySig:mean 	0.87025515765085
scalar Network.dyn_peer[419] 	lookupHopsSig:mean 	15.5
scalar Network.dyn_peer[420] 	lookupTimeSig:mean 	1.76
scalar Network.dyn_peer[420] 	lookupStabilitySig:mean 	0.84443792849779
scalar Network.dyn_peer[420] 	lookupHopsSig:mean 	16.8
[...]
scalar Network.dyn_peer[896] 	lookupTimeSig:mean 	1.2222222222222
scalar Network.dyn_peer[896] 	lookupStabilitySig:mean 	0.85600368228431
scalar Network.dyn_peer[896] 	lookupHopsSig:mean 	11.333333333333
scalar Network.dyn_peer[897] 	lookupTimeSig:mean 	2.3857142857143
scalar Network.dyn_peer[897] 	lookupStabilitySig:mean 	0.93605591742588
scalar Network.dyn_peer[897] 	lookupHopsSig:mean 	23
scalar Network.dyn_peer[898] 	lookupTimeSig:mean 	1.475
scalar Network.dyn_peer[898] 	lookupStabilitySig:mean 	0.66246367618442
scalar Network.dyn_peer[898] 	lookupHopsSig:mean 	14
scalar Network.dyn_peer[899] 	lookupTimeSig:mean 	3.4666666666667
scalar Network.dyn_peer[899] 	lookupStabilitySig:mean 	0.68550742728015
scalar Network.dyn_peer[899] 	lookupHopsSig:mean 	34
scalar Network.dyn_peer[900] 	lookupTimeSig:mean 	1.2636363636364
scalar Network.dyn_peer[900] 	lookupStabilitySig:mean 	0.86052617244422
scalar Network.dyn_peer[900] 	lookupHopsSig:mean 	11.727272727273
scalar Network.dyn_peer[901] 	lookupTimeSig:mean 	1.6666666666667
scalar Network.dyn_peer[901] 	lookupStabilitySig:mean 	0.95642921712715
scalar Network.dyn_peer[901] 	lookupHopsSig:mean 	15.75
scalar Network.dyn_peer[902] 	lookupTimeSig:mean 	2.0333333333333
scalar Network.dyn_peer[902] 	lookupStabilitySig:mean 	0.9389428786623
scalar Network.dyn_peer[902] 	lookupHopsSig:mean 	19.5
scalar Network.dyn_peer[903] 	lookupTimeSig:mean 	0.98
scalar Network.dyn_peer[903] 	lookupStabilitySig:mean 	0.91989695699885
scalar Network.dyn_peer[903] 	lookupHopsSig:mean 	8.9
scalar Network.dyn_peer[904] 	lookupTimeSig:mean 	1.6714285714286
scalar Network.dyn_peer[904] 	lookupStabilitySig:mean 	0.84453220113314
scalar Network.dyn_peer[904] 	lookupHopsSig:mean 	15.857142857143
scalar Network.dyn_peer[905] 	lookupTimeSig:mean 	1.44
scalar Network.dyn_peer[905] 	lookupStabilitySig:mean 	0.71846253238618
scalar Network.dyn_peer[905] 	lookupHopsSig:mean 	13.6
scalar Network.dyn_peer[906] 	lookupTimeSig:mean 	3.25
scalar Network.dyn_peer[906] 	lookupStabilitySig:mean 	0.50442969053984
scalar Network.dyn_peer[906] 	lookupHopsSig:mean 	32
scalar Network.dyn_peer[907] 	lookupTimeSig:mean 	1.95
scalar Network.dyn_peer[907] 	lookupStabilitySig:mean 	0.89749318407848
scalar Network.dyn_peer[907] 	lookupHopsSig:mean 	18.666666666667
scalar Network.dyn_peer[908] 	lookupTimeSig:mean 	1.7166666666667
scalar Network.dyn_peer[908] 	lookupStabilitySig:mean 	0.80213024777671
scalar Network.dyn_peer[908] 	lookupHopsSig:mean 	16.333333333333
scalar Network.dyn_peer[909] 	lookupTimeSig:mean 	2.3857142857143
scalar Network.dyn_peer[909] 	lookupStabilitySig:mean 	0.93523526644068
scalar Network.dyn_peer[909] 	lookupHopsSig:mean 	23
scalar Network.dyn_peer[910] 	lookupTimeSig:mean 	1.925
scalar Network.dyn_peer[910] 	lookupStabilitySig:mean 	0.88413454248803
scalar Network.dyn_peer[910] 	lookupHopsSig:mean 	18.375
scalar Network.dyn_peer[911] 	lookupTimeSig:mean 	2.58
scalar Network.dyn_peer[911] 	lookupStabilitySig:mean 	0.92846632618457
scalar Network.dyn_peer[911] 	lookupHopsSig:mean 	25
scalar Network.dyn_peer[912] 	lookupTimeSig:mean 	3.0428571428571
scalar Network.dyn_peer[912] 	lookupStabilitySig:mean 	0.95606550960136
scalar Network.dyn_peer[912] 	lookupHopsSig:mean 	29.571428571429
scalar Network.dyn_peer[913] 	lookupTimeSig:mean 	2.975
scalar Network.dyn_peer[913] 	lookupStabilitySig:mean 	0.85604935931042
scalar Network.dyn_peer[913] 	lookupHopsSig:mean 	29
scalar Network.dyn_peer[914] 	lookupTimeSig:mean 	2.6
scalar Network.dyn_peer[914] 	lookupStabilitySig:mean 	0.50686813890934
scalar Network.dyn_peer[914] 	lookupHopsSig:mean 	25.5
scalar Network.dyn_peer[915] 	lookupTimeSig:mean 	2.42
scalar Network.dyn_peer[915] 	lookupStabilitySig:mean 	0.9508023663424
scalar Network.dyn_peer[915] 	lookupHopsSig:mean 	23.3
scalar Network.dyn_peer[916] 	lookupTimeSig:mean 	2.5571428571429
scalar Network.dyn_peer[916] 	lookupStabilitySig:mean 	0.94891557935625
scalar Network.dyn_peer[916] 	lookupHopsSig:mean 	24.714285714286
scalar Network.dyn_peer[917] 	lookupTimeSig:mean 	2.8333333333333
scalar Network.dyn_peer[917] 	lookupStabilitySig:mean 	0.57553043961525
scalar Network.dyn_peer[917] 	lookupHopsSig:mean 	27.666666666667
scalar Network.dyn_peer[918] 	lookupTimeSig:mean 	1.6333333333333
scalar Network.dyn_peer[918] 	lookupStabilitySig:mean 	0.68696401764949
scalar Network.dyn_peer[918] 	lookupHopsSig:mean 	15.666666666667
scalar Network.dyn_peer[919] 	lookupTimeSig:mean 	2.2
scalar Network.dyn_peer[919] 	lookupStabilitySig:mean 	0.80004596337676
scalar Network.dyn_peer[919] 	lookupHopsSig:mean 	21.2
scalar Network.dyn_peer[920] 	lookupTimeSig:mean 	1.8333333333333
scalar Network.dyn_peer[920] 	lookupStabilitySig:mean 	0.95648414315656
scalar Network.dyn_peer[920] 	lookupHopsSig:mean 	17.444444444444
scalar Network.dyn_peer[921] 	lookupTimeSig:mean 	1.2625
scalar Network.dyn_peer[921] 	lookupStabilitySig:mean 	0.85527279938105
scalar Network.dyn_peer[921] 	lookupHopsSig:mean 	11.75
scalar Network.dyn_peer[922] 	lookupTimeSig:mean 	1.4571428571429
scalar Network.dyn_peer[922] 	lookupStabilitySig:mean 	0.85663275154574
scalar Network.dyn_peer[922] 	lookupHopsSig:mean 	13.714285714286
scalar Network.dyn_peer[923] 	lookupTimeSig:mean 	1.4866666666667
scalar Network.dyn_peer[923] 	lookupStabilitySig:mean 	0.91936945421621
scalar Network.dyn_peer[923] 	lookupHopsSig:mean 	13.933333333333
scalar Network.dyn_peer[924] 	lookupTimeSig:mean 	1.95
scalar Network.dyn_peer[924] 	lookupStabilitySig:mean 	0.96441932294207
scalar Network.dyn_peer[924] 	lookupHopsSig:mean 	18.583333333333
scalar Network.dyn_peer[925] 	lookupTimeSig:mean 	2.2555555555556
scalar Network.dyn_peer[925] 	lookupStabilitySig:mean 	0.9587417076497
scalar Network.dyn_peer[925] 	lookupHopsSig:mean 	21.666666666667
scalar Network.dyn_peer[926] 	lookupTimeSig:mean 	1.0333333333333
scalar Network.dyn_peer[926] 	lookupStabilitySig:mean 	0.82643679250032
scalar Network.dyn_peer[926] 	lookupHopsSig:mean 	9.5
scalar Network.dyn_peer[927] 	lookupTimeSig:mean 	1.325
scalar Network.dyn_peer[927] 	lookupStabilitySig:mean 	0.73636590037495
scalar Network.dyn_peer[927] 	lookupHopsSig:mean 	12.5
scalar Network.dyn_peer[928] 	lookupTimeSig:mean 	2.0285714285714
scalar Network.dyn_peer[928] 	lookupStabilitySig:mean 	0.91352508649496
scalar Network.dyn_peer[928] 	lookupHopsSig:mean 	19.428571428571
scalar Network.dyn_peer[929] 	lookupTimeSig:mean 	1.8727272727273
scalar Network.dyn_peer[929] 	lookupStabilitySig:mean 	0.95607494169169
scalar Network.dyn_peer[929] 	lookupHopsSig:mean 	17.818181818182
scalar Network.dyn_peer[930] 	lookupTimeSig:mean 	1.87
scalar Network.dyn_peer[930] 	lookupStabilitySig:mean 	0.88504337135237
scalar Network.dyn_peer[930] 	lookupHopsSig:mean 	17.8
scalar Network.dyn_peer[931] 	lookupTimeSig:mean 	2.075
scalar Network.dyn_peer[931] 	lookupStabilitySig:mean 	0.91262374119833
scalar Network.dyn_peer[931] 	lookupHopsSig:mean 	19.875
scalar Network.dyn_peer[932] 	lookupTimeSig:mean 	1.4285714285714
scalar Network.dyn_peer[932] 	lookupStabilitySig:mean 	0.858408248052
scalar Network.dyn_peer[932] 	lookupHopsSig:mean 	13.428571428571
scalar Network.dyn_peer[933] 	lookupTimeSig:mean 	1.6
scalar Network.dyn_peer[933] 	lookupStabilitySig:mean 	0.94750562951797
scalar Network.dyn_peer[933] 	lookupHopsSig:mean 	15.111111111111
scalar Network.dyn_peer[934] 	lookupTimeSig:mean 	0.775
scalar Network.dyn_peer[934] 	lookupStabilitySig:mean 	0.673518512398
scalar Network.dyn_peer[934] 	lookupHopsSig:mean 	7
scalar Network.dyn_peer[935] 	lookupTimeSig:mean 	2.1333333333333
scalar Network.dyn_peer[935] 	lookupStabilitySig:mean 	0.62954202666879
scalar Network.dyn_peer[935] 	lookupHopsSig:mean 	20.666666666667
scalar Network.dyn_peer[936] 	lookupTimeSig:mean 	1.625
scalar Network.dyn_peer[936] 	lookupStabilitySig:mean 	0.66389529872686
scalar Network.dyn_peer[936] 	lookupHopsSig:mean 	15.5
scalar Network.dyn_peer[937] 	lookupTimeSig:mean 	1.2
scalar Network.dyn_peer[937] 	lookupStabilitySig:mean 	0.86895063205156
scalar Network.dyn_peer[937] 	lookupHopsSig:mean 	11.125
scalar Network.dyn_peer[938] 	lookupTimeSig:mean 	2.3333333333333
scalar Network.dyn_peer[938] 	lookupStabilitySig:mean 	0.94871827447787
scalar Network.dyn_peer[938] 	lookupHopsSig:mean 	22.5
scalar Network.dyn_peer[939] 	lookupTimeSig:mean 	1.2285714285714
scalar Network.dyn_peer[939] 	lookupStabilitySig:mean 	0.84349015301892
scalar Network.dyn_peer[939] 	lookupHopsSig:mean 	11.428571428571
scalar Network.dyn_peer[940] 	lookupTimeSig:mean 	2.0285714285714
scalar Network.dyn_peer[940] 	lookupStabilitySig:mean 	0.84887521421271
scalar Network.dyn_peer[940] 	lookupHopsSig:mean 	19.428571428571
scalar Network.dyn_peer[941] 	lookupTimeSig:mean 	2.5125
scalar Network.dyn_peer[941] 	lookupStabilitySig:mean 	0.86739959195256
scalar Network.dyn_peer[941] 	lookupHopsSig:mean 	24.25
scalar Network.dyn_peer[942] 	lookupTimeSig:mean 	1.88
scalar Network.dyn_peer[942] 	lookupStabilitySig:mean 	0.65273477323353
scalar Network.dyn_peer[942] 	lookupHopsSig:mean 	18
scalar Network.dyn_peer[943] 	lookupTimeSig:mean 	1.0666666666667
scalar Network.dyn_peer[943] 	lookupStabilitySig:mean 	0.90873349628722
scalar Network.dyn_peer[943] 	lookupHopsSig:mean 	9.8333333333333
scalar Network.dyn_peer[944] 	lookupTimeSig:mean 	2.075
scalar Network.dyn_peer[944] 	lookupStabilitySig:mean 	0.87001761025749
scalar Network.dyn_peer[944] 	lookupHopsSig:mean 	19.875
scalar Network.dyn_peer[945] 	lookupTimeSig:mean 	1.7555555555556
scalar Network.dyn_peer[945] 	lookupStabilitySig:mean 	0.8892893805686
scalar Network.dyn_peer[945] 	lookupHopsSig:mean 	16.666666666667
scalar Network.dyn_peer[946] 	lookupTimeSig:mean 	2.55
scalar Network.dyn_peer[946] 	lookupStabilitySig:mean 	0.73033367749304
scalar Network.dyn_peer[946] 	lookupHopsSig:mean 	24.75
scalar Network.dyn_peer[947] 	lookupTimeSig:mean 	1.7571428571429
scalar Network.dyn_peer[947] 	lookupStabilitySig:mean 	0.83897175187511
scalar Network.dyn_peer[947] 	lookupHopsSig:mean 	16.714285714286
scalar Network.dyn_peer[948] 	lookupTimeSig:mean 	2.2
scalar Network.dyn_peer[948] 	lookupStabilitySig:mean 	0.91959297829973
scalar Network.dyn_peer[948] 	lookupHopsSig:mean 	21.142857142857
scalar Network.dyn_peer[949] 	lookupTimeSig:mean 	1.8666666666667
scalar Network.dyn_peer[949] 	lookupStabilitySig:mean 	0.54461728036404
scalar Network.dyn_peer[949] 	lookupHopsSig:mean 	18
scalar Network.dyn_peer[950] 	lookupTimeSig:mean 	2.5571428571429
scalar Network.dyn_peer[950] 	lookupStabilitySig:mean 	0.95748530295012
scalar Network.dyn_peer[950] 	lookupHopsSig:mean 	24.714285714286
scalar Network.dyn_peer[951] 	lookupTimeSig:mean 	2.7
scalar Network.dyn_peer[951] 	lookupStabilitySig:mean 	0.48483145236969
scalar Network.dyn_peer[951] 	lookupHopsSig:mean 	26.5
scalar Network.dyn_peer[952] 	lookupTimeSig:mean 	3.06
scalar Network.dyn_peer[952] 	lookupStabilitySig:mean 	0.94590219631791
scalar Network.dyn_peer[952] 	lookupHopsSig:mean 	29.8
scalar Network.dyn_peer[953] 	lookupTimeSig:mean 	4.85
scalar Network.dyn_peer[953] 	lookupStabilitySig:mean 	0.64884603023529
scalar Network.dyn_peer[953] 	lookupHopsSig:mean 	48
scalar Network.dyn_peer[954] 	lookupTimeSig:mean 	2.6333333333333
scalar Network.dyn_peer[954] 	lookupStabilitySig:mean 	0.61587313562632
scalar Network.dyn_peer[954] 	lookupHopsSig:mean 	25.666666666667
scalar Network.dyn_peer[955] 	lookupTimeSig:mean 	2.2
scalar Network.dyn_peer[955] 	lookupStabilitySig:mean 	0.96485285579951
scalar Network.dyn_peer[955] 	lookupHopsSig:mean 	21.111111111111
scalar Network.dyn_peer[956] 	lookupTimeSig:mean 	1.6
scalar Network.dyn_peer[956] 	lookupStabilitySig:mean 	0.71719540096819
scalar Network.dyn_peer[956] 	lookupHopsSig:mean 	15.25
scalar Network.dyn_peer[957] 	lookupTimeSig:mean 	1.57
scalar Network.dyn_peer[957] 	lookupStabilitySig:mean 	0.90514104994945
scalar Network.dyn_peer[957] 	lookupHopsSig:mean 	14.8
scalar Network.dyn_peer[958] 	lookupTimeSig:mean 	1.8571428571429
scalar Network.dyn_peer[958] 	lookupStabilitySig:mean 	0.82619910767036
scalar Network.dyn_peer[958] 	lookupHopsSig:mean 	17.714285714286
scalar Network.dyn_peer[959] 	lookupTimeSig:mean 	2.3285714285714
scalar Network.dyn_peer[959] 	lookupStabilitySig:mean 	0.96345631106357
scalar Network.dyn_peer[959] 	lookupHopsSig:mean 	22.428571428571
scalar Network.dyn_peer[960] 	lookupTimeSig:mean 	1.82
scalar Network.dyn_peer[960] 	lookupStabilitySig:mean 	0.85273074507713
scalar Network.dyn_peer[960] 	lookupHopsSig:mean 	17.4
scalar Network.dyn_peer[961] 	lookupTimeSig:mean 	1.6222222222222
scalar Network.dyn_peer[961] 	lookupStabilitySig:mean 	0.88706306844122
scalar Network.dyn_peer[961] 	lookupHopsSig:mean 	15.333333333333
scalar Network.dyn_peer[962] 	lookupTimeSig:mean 	2.7
scalar Network.dyn_peer[962] 	lookupStabilitySig:mean 	0.93778091374164
scalar Network.dyn_peer[962] 	lookupHopsSig:mean 	26.166666666667
scalar Network.dyn_peer[963] 	lookupTimeSig:mean 	2.1166666666667
scalar Network.dyn_peer[963] 	lookupStabilitySig:mean 	0.80589656655987
scalar Network.dyn_peer[963] 	lookupHopsSig:mean 	20.333333333333
scalar Network.dyn_peer[964] 	lookupTimeSig:mean 	2.8416666666667
scalar Network.dyn_peer[964] 	lookupStabilitySig:mean 	0.95450040434177
scalar Network.dyn_peer[964] 	lookupHopsSig:mean 	27.5
scalar Network.dyn_peer[965] 	lookupTimeSig:mean 	1.8428571428571
scalar Network.dyn_peer[965] 	lookupStabilitySig:mean 	0.95156798199085
scalar Network.dyn_peer[965] 	lookupHopsSig:mean 	17.5
scalar Network.dyn_peer[966] 	lookupTimeSig:mean 	2.1
scalar Network.dyn_peer[966] 	lookupStabilitySig:mean 	0.94286749392216
scalar Network.dyn_peer[966] 	lookupHopsSig:mean 	20.142857142857
scalar Network.dyn_peer[967] 	lookupTimeSig:mean 	1.88
scalar Network.dyn_peer[967] 	lookupStabilitySig:mean 	0.71072270143777
scalar Network.dyn_peer[967] 	lookupHopsSig:mean 	18
scalar Network.dyn_peer[968] 	lookupTimeSig:mean 	2.14
scalar Network.dyn_peer[968] 	lookupStabilitySig:mean 	0.88984615579247
scalar Network.dyn_peer[968] 	lookupHopsSig:mean 	20.6
scalar Network.dyn_peer[969] 	lookupTimeSig:mean 	2.36
scalar Network.dyn_peer[969] 	lookupStabilitySig:mean 	0.77697448264807
scalar Network.dyn_peer[969] 	lookupHopsSig:mean 	22.8
scalar Network.dyn_peer[970] 	lookupTimeSig:mean 	2.4714285714286
scalar Network.dyn_peer[970] 	lookupStabilitySig:mean 	0.95320109211441
scalar Network.dyn_peer[970] 	lookupHopsSig:mean 	23.857142857143
scalar Network.dyn_peer[971] 	lookupTimeSig:mean 	1.7875
scalar Network.dyn_peer[971] 	lookupStabilitySig:mean 	0.9390491519589
scalar Network.dyn_peer[971] 	lookupHopsSig:mean 	17
scalar Network.dyn_peer[972] 	lookupTimeSig:mean 	1.0571428571429
scalar Network.dyn_peer[972] 	lookupStabilitySig:mean 	0.89268654265574
scalar Network.dyn_peer[972] 	lookupHopsSig:mean 	9.7142857142857
scalar Network.dyn_peer[973] 	lookupTimeSig:mean 	1.675
scalar Network.dyn_peer[973] 	lookupStabilitySig:mean 	0.67015560809523
scalar Network.dyn_peer[973] 	lookupHopsSig:mean 	16
scalar Network.dyn_peer[974] 	lookupTimeSig:mean 	2.0333333333333
scalar Network.dyn_peer[974] 	lookupStabilitySig:mean 	0.92943248121689
scalar Network.dyn_peer[974] 	lookupHopsSig:mean 	19.5
scalar Network.dyn_peer[975] 	lookupTimeSig:mean 	2.38
scalar Network.dyn_peer[975] 	lookupStabilitySig:mean 	0.78842052593827
scalar Network.dyn_peer[975] 	lookupHopsSig:mean 	23
scalar Network.dyn_peer[976] 	lookupTimeSig:mean 	2.425
scalar Network.dyn_peer[976] 	lookupStabilitySig:mean 	0.89476941141766
scalar Network.dyn_peer[976] 	lookupHopsSig:mean 	23.375
scalar Network.dyn_peer[977] 	lookupTimeSig:mean 	1.44
scalar Network.dyn_peer[977] 	lookupStabilitySig:mean 	0.92574955937453
scalar Network.dyn_peer[977] 	lookupHopsSig:mean 	13.5
scalar Network.dyn_peer[978] 	lookupTimeSig:mean 	4.0333333333333
scalar Network.dyn_peer[978] 	lookupStabilitySig:mean 	0.92973059539994
scalar Network.dyn_peer[978] 	lookupHopsSig:mean 	39.666666666667
scalar Network.dyn_peer[979] 	lookupTimeSig:mean 	2.4
scalar Network.dyn_peer[979] 	lookupStabilitySig:mean 	0.69567975588143
scalar Network.dyn_peer[979] 	lookupHopsSig:mean 	23.25
scalar Network.dyn_peer[980] 	lookupTimeSig:mean 	1.7333333333333
scalar Network.dyn_peer[980] 	lookupStabilitySig:mean 	0.85338946224915
scalar Network.dyn_peer[980] 	lookupHopsSig:mean 	16.444444444444
scalar Network.dyn_peer[981] 	lookupTimeSig:mean 	1.3875
scalar Network.dyn_peer[981] 	lookupStabilitySig:mean 	0.88084952742793
scalar Network.dyn_peer[981] 	lookupHopsSig:mean 	13
scalar Network.dyn_peer[982] 	lookupTimeSig:mean 	1.74
scalar Network.dyn_peer[982] 	lookupStabilitySig:mean 	0.76571195926517
scalar Network.dyn_peer[982] 	lookupHopsSig:mean 	16.6
scalar Network.dyn_peer[983] 	lookupTimeSig:mean 	1.65
scalar Network.dyn_peer[983] 	lookupStabilitySig:mean 	0.93099823105149
scalar Network.dyn_peer[983] 	lookupHopsSig:mean 	15.666666666667
scalar Network.dyn_peer[984] 	lookupTimeSig:mean 	1.2
scalar Network.dyn_peer[984] 	lookupStabilitySig:mean 	0.57956657807032
scalar Network.dyn_peer[984] 	lookupHopsSig:mean 	11.333333333333
scalar Network.dyn_peer[985] 	lookupTimeSig:mean 	4.575
scalar Network.dyn_peer[985] 	lookupStabilitySig:mean 	0.91887998627499
scalar Network.dyn_peer[985] 	lookupHopsSig:mean 	45
scalar Network.dyn_peer[986] 	lookupTimeSig:mean 	2.6666666666667
scalar Network.dyn_peer[986] 	lookupStabilitySig:mean 	0.58945746223132
scalar Network.dyn_peer[986] 	lookupHopsSig:mean 	26
scalar Network.dyn_peer[987] 	lookupTimeSig:mean 	2.1333333333333
scalar Network.dyn_peer[987] 	lookupStabilitySig:mean 	0.95246900204155
scalar Network.dyn_peer[987] 	lookupHopsSig:mean 	20.444444444444
scalar Network.dyn_peer[988] 	lookupTimeSig:mean 	2.225
scalar Network.dyn_peer[988] 	lookupStabilitySig:mean 	0.70560020767152
scalar Network.dyn_peer[988] 	lookupHopsSig:mean 	21.5
scalar Network.dyn_peer[989] 	lookupTimeSig:mean 	1.8666666666667
scalar Network.dyn_peer[989] 	lookupStabilitySig:mean 	0.74260911376526
scalar Network.dyn_peer[989] 	lookupHopsSig:mean 	18
scalar Network.dyn_peer[990] 	lookupTimeSig:mean 	2.5555555555556
scalar Network.dyn_peer[990] 	lookupStabilitySig:mean 	0.93313318708291
scalar Network.dyn_peer[990] 	lookupHopsSig:mean 	24.666666666667
scalar Network.dyn_peer[991] 	lookupTimeSig:mean 	2.0833333333333
scalar Network.dyn_peer[991] 	lookupStabilitySig:mean 	0.90353047537307
scalar Network.dyn_peer[991] 	lookupHopsSig:mean 	20
scalar Network.dyn_peer[992] 	lookupTimeSig:mean 	2.15
scalar Network.dyn_peer[992] 	lookupStabilitySig:mean 	0.957025378244
scalar Network.dyn_peer[992] 	lookupHopsSig:mean 	20.625
scalar Network.dyn_peer[993] 	lookupTimeSig:mean 	1.7
scalar Network.dyn_peer[993] 	lookupStabilitySig:mean 	0.94942566745781
scalar Network.dyn_peer[993] 	lookupHopsSig:mean 	16.142857142857
scalar Network.dyn_peer[994] 	lookupTimeSig:mean 	2.2
scalar Network.dyn_peer[994] 	lookupStabilitySig:mean 	0.719000738735
scalar Network.dyn_peer[994] 	lookupHopsSig:mean 	21.333333333333
scalar Network.dyn_peer[995] 	lookupTimeSig:mean 	1.325
scalar Network.dyn_peer[995] 	lookupStabilitySig:mean 	0.84955032961443
scalar Network.dyn_peer[995] 	lookupHopsSig:mean 	12.375
scalar Network.dyn_peer[996] 	lookupTimeSig:mean 	2.32
scalar Network.dyn_peer[996] 	lookupStabilitySig:mean 	0.9574423183687
scalar Network.dyn_peer[996] 	lookupHopsSig:mean 	22.3
scalar Network.dyn_peer[997] 	lookupTimeSig:mean 	0.925
scalar Network.dyn_peer[997] 	lookupStabilitySig:mean 	0.67700562626123
scalar Network.dyn_peer[997] 	lookupHopsSig:mean 	8.5
scalar Network.dyn_peer[998] 	lookupTimeSig:mean 	1.9125
scalar Network.dyn_peer[998] 	lookupStabilitySig:mean 	0.90663818165194
scalar Network.dyn_peer[998] 	lookupHopsSig:mean 	18.25
scalar Network.dyn_peer[999] 	lookupTimeSig:mean 	1.525
scalar Network.dyn_peer[999] 	lookupStabilitySig:mean 	0.68422679975629
scalar Network.dyn_peer[999] 	lookupHopsSig:mean 	14.5
scalar Network.churner 	inGoingSizeSig:mean 	499.000999001
