version 2
run Stability2-304-20130526-00:54:30-26640
attr configname Stability2
attr datetime 20130526-00:54:30
attr experiment Stability2
attr inifile omnetpp.ini
attr iterationvars $0=1000
attr iterationvars2 "$0=1000, $repetition=4"
attr measurement $0=1000
attr network Network
attr processid 26640
attr repetition 4
attr replication #4
attr resultdir results
attr runnumber 304
attr seedset 304

scalar Network.dyn_peer[0] 	lookupTimeSig:mean 	1.9
scalar Network.dyn_peer[0] 	lookupStabilitySig:mean 	0.77617400977761
scalar Network.dyn_peer[0] 	lookupHopsSig:mean 	18.25
scalar Network.dyn_peer[1] 	lookupTimeSig:mean 	1.1444444444444
scalar Network.dyn_peer[1] 	lookupStabilitySig:mean 	0.64170455911921
scalar Network.dyn_peer[1] 	lookupHopsSig:mean 	10.555555555556
scalar Network.dyn_peer[2] 	lookupTimeSig:mean 	3.15
scalar Network.dyn_peer[2] 	lookupStabilitySig:mean 	0.85585099924356
scalar Network.dyn_peer[2] 	lookupHopsSig:mean 	30.75
scalar Network.dyn_peer[3] 	lookupTimeSig:mean 	1.5545454545455
scalar Network.dyn_peer[3] 	lookupStabilitySig:mean 	0.93374390252443
scalar Network.dyn_peer[3] 	lookupHopsSig:mean 	14.636363636364
scalar Network.dyn_peer[4] 	lookupTimeSig:mean 	2.575
scalar Network.dyn_peer[4] 	lookupStabilitySig:mean 	0.63044579327106
scalar Network.dyn_peer[4] 	lookupHopsSig:mean 	25
scalar Network.dyn_peer[5] 	lookupTimeSig:mean 	2.0230769230769
scalar Network.dyn_peer[5] 	lookupStabilitySig:mean 	0.89965643611952
scalar Network.dyn_peer[5] 	lookupHopsSig:mean 	19.307692307692
scalar Network.dyn_peer[6] 	lookupTimeSig:mean 	1.575
scalar Network.dyn_peer[6] 	lookupStabilitySig:mean 	0.48136223293841
scalar Network.dyn_peer[6] 	lookupHopsSig:mean 	15
scalar Network.dyn_peer[7] 	lookupTimeSig:mean 	0.82857142857143
scalar Network.dyn_peer[7] 	lookupStabilitySig:mean 	0.66623192599842
scalar Network.dyn_peer[7] 	lookupHopsSig:mean 	7.4285714285714
scalar Network.dyn_peer[8] 	lookupTimeSig:mean 	2.4
scalar Network.dyn_peer[8] 	lookupStabilitySig:mean 	0.74632299939791
scalar Network.dyn_peer[8] 	lookupHopsSig:mean 	23.333333333333
scalar Network.dyn_peer[9] 	lookupTimeSig:mean 	3.1333333333333
scalar Network.dyn_peer[9] 	lookupStabilitySig:mean 	0.50271027969817
scalar Network.dyn_peer[9] 	lookupHopsSig:mean 	30.5
scalar Network.dyn_peer[10] 	lookupTimeSig:mean 	0.975
scalar Network.dyn_peer[10] 	lookupStabilitySig:mean 	0.25511363148689
scalar Network.dyn_peer[10] 	lookupHopsSig:mean 	9
scalar Network.dyn_peer[11] 	lookupTimeSig:mean 	1.96
scalar Network.dyn_peer[11] 	lookupStabilitySig:mean 	0.57601897269487
scalar Network.dyn_peer[11] 	lookupHopsSig:mean 	18.8
scalar Network.dyn_peer[12] 	lookupTimeSig:mean 	1.85
scalar Network.dyn_peer[12] 	lookupStabilitySig:mean 	0.55933570427199
scalar Network.dyn_peer[12] 	lookupHopsSig:mean 	17.666666666667
scalar Network.dyn_peer[13] 	lookupTimeSig:mean 	1.5444444444444
scalar Network.dyn_peer[13] 	lookupStabilitySig:mean 	0.65721729749607
scalar Network.dyn_peer[13] 	lookupHopsSig:mean 	14.555555555556
scalar Network.dyn_peer[14] 	lookupTimeSig:mean 	3.05
scalar Network.dyn_peer[14] 	lookupStabilitySig:mean 	0.81378066213802
scalar Network.dyn_peer[14] 	lookupHopsSig:mean 	29.75
scalar Network.dyn_peer[15] 	lookupTimeSig:mean 	3.05
scalar Network.dyn_peer[15] 	lookupStabilitySig:mean 	0.46861486881971
scalar Network.dyn_peer[15] 	lookupHopsSig:mean 	29.75
scalar Network.dyn_peer[16] 	lookupTimeSig:mean 	1.5333333333333
scalar Network.dyn_peer[16] 	lookupStabilitySig:mean 	0.69003839252724
scalar Network.dyn_peer[16] 	lookupHopsSig:mean 	14.444444444444
scalar Network.dyn_peer[17] 	lookupTimeSig:mean 	1.4625
scalar Network.dyn_peer[17] 	lookupStabilitySig:mean 	0.76222950604279
scalar Network.dyn_peer[17] 	lookupHopsSig:mean 	13.75
scalar Network.dyn_peer[18] 	lookupTimeSig:mean 	2.5
scalar Network.dyn_peer[18] 	lookupStabilitySig:mean 	0.59604885615408
scalar Network.dyn_peer[18] 	lookupHopsSig:mean 	24.25
scalar Network.dyn_peer[19] 	lookupTimeSig:mean 	3.3333333333333
scalar Network.dyn_peer[19] 	lookupStabilitySig:mean 	0.3548090060552
scalar Network.dyn_peer[19] 	lookupHopsSig:mean 	32.666666666667
scalar Network.dyn_peer[20] 	lookupTimeSig:mean 	1.9
scalar Network.dyn_peer[20] 	lookupStabilitySig:mean 	0.66747252922505
scalar Network.dyn_peer[20] 	lookupHopsSig:mean 	18.125
scalar Network.dyn_peer[21] 	lookupTimeSig:mean 	1.2166666666667
scalar Network.dyn_peer[21] 	lookupStabilitySig:mean 	0.6279272865504
scalar Network.dyn_peer[21] 	lookupHopsSig:mean 	11.333333333333
scalar Network.dyn_peer[22] 	lookupTimeSig:mean 	1.2666666666667
scalar Network.dyn_peer[22] 	lookupStabilitySig:mean 	0.6144623508056
scalar Network.dyn_peer[22] 	lookupHopsSig:mean 	11.833333333333
scalar Network.dyn_peer[23] 	lookupTimeSig:mean 	0.96666666666667
scalar Network.dyn_peer[23] 	lookupStabilitySig:mean 	0.57331008836627
scalar Network.dyn_peer[23] 	lookupHopsSig:mean 	8.8333333333333
scalar Network.dyn_peer[24] 	lookupTimeSig:mean 	1.22
scalar Network.dyn_peer[24] 	lookupStabilitySig:mean 	0.49352631047368
scalar Network.dyn_peer[24] 	lookupHopsSig:mean 	11.4
scalar Network.dyn_peer[25] 	lookupTimeSig:mean 	1.5083333333333
scalar Network.dyn_peer[25] 	lookupStabilitySig:mean 	0.77876395006509
scalar Network.dyn_peer[25] 	lookupHopsSig:mean 	14.166666666667
scalar Network.dyn_peer[26] 	lookupTimeSig:mean 	2.52
scalar Network.dyn_peer[26] 	lookupStabilitySig:mean 	0.57072409912944
scalar Network.dyn_peer[26] 	lookupHopsSig:mean 	24.4
scalar Network.dyn_peer[27] 	lookupTimeSig:mean 	1.775
scalar Network.dyn_peer[27] 	lookupStabilitySig:mean 	0.50250270590186
scalar Network.dyn_peer[27] 	lookupHopsSig:mean 	17
scalar Network.dyn_peer[28] 	lookupTimeSig:mean 	2.3333333333333
scalar Network.dyn_peer[28] 	lookupStabilitySig:mean 	0.38582071910302
scalar Network.dyn_peer[28] 	lookupHopsSig:mean 	22.666666666667
scalar Network.dyn_peer[29] 	lookupTimeSig:mean 	1.26
scalar Network.dyn_peer[29] 	lookupStabilitySig:mean 	0.50510663986206
scalar Network.dyn_peer[29] 	lookupHopsSig:mean 	11.8
scalar Network.dyn_peer[30] 	lookupTimeSig:mean 	1.5
scalar Network.dyn_peer[30] 	lookupStabilitySig:mean 	0.74217708129436
scalar Network.dyn_peer[30] 	lookupHopsSig:mean 	14.125
scalar Network.dyn_peer[31] 	lookupTimeSig:mean 	1.725
scalar Network.dyn_peer[31] 	lookupStabilitySig:mean 	0.37529146671295
scalar Network.dyn_peer[31] 	lookupHopsSig:mean 	16.5
scalar Network.dyn_peer[32] 	lookupTimeSig:mean 	3.3
scalar Network.dyn_peer[32] 	lookupStabilitySig:mean 	0.78466644324362
scalar Network.dyn_peer[32] 	lookupHopsSig:mean 	32.25
scalar Network.dyn_peer[33] 	lookupTimeSig:mean 	1.7625
scalar Network.dyn_peer[33] 	lookupStabilitySig:mean 	0.75160380778834
scalar Network.dyn_peer[33] 	lookupHopsSig:mean 	16.75
scalar Network.dyn_peer[34] 	lookupTimeSig:mean 	2.55
scalar Network.dyn_peer[34] 	lookupStabilitySig:mean 	0.72546217776835
scalar Network.dyn_peer[34] 	lookupHopsSig:mean 	24.75
scalar Network.dyn_peer[35] 	lookupTimeSig:mean 	2.16
scalar Network.dyn_peer[35] 	lookupStabilitySig:mean 	0.86857583969831
scalar Network.dyn_peer[35] 	lookupHopsSig:mean 	20.8
scalar Network.dyn_peer[36] 	lookupTimeSig:mean 	1.725
scalar Network.dyn_peer[36] 	lookupStabilitySig:mean 	0.74610638897866
scalar Network.dyn_peer[36] 	lookupHopsSig:mean 	16.5
scalar Network.dyn_peer[37] 	lookupTimeSig:mean 	2.5166666666667
scalar Network.dyn_peer[37] 	lookupStabilitySig:mean 	0.8812517686747
scalar Network.dyn_peer[37] 	lookupHopsSig:mean 	24.333333333333
scalar Network.dyn_peer[38] 	lookupTimeSig:mean 	1.92
scalar Network.dyn_peer[38] 	lookupStabilitySig:mean 	0.72190251578577
scalar Network.dyn_peer[38] 	lookupHopsSig:mean 	18.3
scalar Network.dyn_peer[39] 	lookupTimeSig:mean 	1.075
scalar Network.dyn_peer[39] 	lookupStabilitySig:mean 	0.58819559006952
scalar Network.dyn_peer[39] 	lookupHopsSig:mean 	9.875
scalar Network.dyn_peer[40] 	lookupTimeSig:mean 	2.5857142857143
scalar Network.dyn_peer[40] 	lookupStabilitySig:mean 	0.91558107128367
scalar Network.dyn_peer[40] 	lookupHopsSig:mean 	25
scalar Network.dyn_peer[41] 	lookupTimeSig:mean 	1.3416666666667
scalar Network.dyn_peer[41] 	lookupStabilitySig:mean 	0.92950921226293
scalar Network.dyn_peer[41] 	lookupHopsSig:mean 	12.5
scalar Network.dyn_peer[42] 	lookupTimeSig:mean 	2.15
scalar Network.dyn_peer[42] 	lookupStabilitySig:mean 	0.65137707442045
scalar Network.dyn_peer[42] 	lookupHopsSig:mean 	20.625
scalar Network.dyn_peer[43] 	lookupTimeSig:mean 	1.7857142857143
scalar Network.dyn_peer[43] 	lookupStabilitySig:mean 	0.71117679934417
scalar Network.dyn_peer[43] 	lookupHopsSig:mean 	17
scalar Network.dyn_peer[44] 	lookupTimeSig:mean 	1.8
scalar Network.dyn_peer[44] 	lookupStabilitySig:mean 	0.7503513864552
scalar Network.dyn_peer[44] 	lookupHopsSig:mean 	17.166666666667
scalar Network.dyn_peer[45] 	lookupTimeSig:mean 	0.5875
scalar Network.dyn_peer[45] 	lookupStabilitySig:mean 	0.64155837870203
scalar Network.dyn_peer[45] 	lookupHopsSig:mean 	5
scalar Network.dyn_peer[46] 	lookupTimeSig:mean 	2.075
scalar Network.dyn_peer[46] 	lookupStabilitySig:mean 	0.87280674336944
scalar Network.dyn_peer[46] 	lookupHopsSig:mean 	19.875
scalar Network.dyn_peer[47] 	lookupTimeSig:mean 	1.9166666666667
scalar Network.dyn_peer[47] 	lookupStabilitySig:mean 	0.72623284099003
scalar Network.dyn_peer[47] 	lookupHopsSig:mean 	18.333333333333
scalar Network.dyn_peer[48] 	lookupTimeSig:mean 	6.3
scalar Network.dyn_peer[48] 	lookupStabilitySig:mean 	0.099999986588955
scalar Network.dyn_peer[48] 	lookupHopsSig:mean 	62.5
scalar Network.dyn_peer[49] 	lookupTimeSig:mean 	1.28
scalar Network.dyn_peer[49] 	lookupStabilitySig:mean 	0.45943086594343
scalar Network.dyn_peer[49] 	lookupHopsSig:mean 	12
scalar Network.dyn_peer[50] 	lookupTimeSig:mean 	1.225
scalar Network.dyn_peer[50] 	lookupStabilitySig:mean 	0.41054582968354
scalar Network.dyn_peer[50] 	lookupHopsSig:mean 	11.5
scalar Network.dyn_peer[51] 	lookupTimeSig:mean 	1.92
scalar Network.dyn_peer[51] 	lookupStabilitySig:mean 	0.6168773882091
scalar Network.dyn_peer[51] 	lookupHopsSig:mean 	18.4
scalar Network.dyn_peer[52] 	lookupTimeSig:mean 	2.8
scalar Network.dyn_peer[52] 	lookupStabilitySig:mean 	0.53683928214014
scalar Network.dyn_peer[52] 	lookupHopsSig:mean 	27.2
scalar Network.dyn_peer[53] 	lookupTimeSig:mean 	3.0666666666667
scalar Network.dyn_peer[53] 	lookupStabilitySig:mean 	0.23148148134351
scalar Network.dyn_peer[53] 	lookupHopsSig:mean 	30
scalar Network.dyn_peer[54] 	lookupTimeSig:mean 	1.8
scalar Network.dyn_peer[54] 	lookupStabilitySig:mean 	0.41430405527353
scalar Network.dyn_peer[54] 	lookupHopsSig:mean 	17.25
scalar Network.dyn_peer[55] 	lookupTimeSig:mean 	2.45
scalar Network.dyn_peer[55] 	lookupStabilitySig:mean 	0.59090909361839
scalar Network.dyn_peer[55] 	lookupHopsSig:mean 	24
scalar Network.dyn_peer[56] 	lookupTimeSig:mean 	2.8
scalar Network.dyn_peer[56] 	lookupStabilitySig:mean 	0.59768047509715
scalar Network.dyn_peer[56] 	lookupHopsSig:mean 	27.25
scalar Network.dyn_peer[57] 	lookupTimeSig:mean 	2.0333333333333
scalar Network.dyn_peer[57] 	lookupStabilitySig:mean 	0.5762552767992
scalar Network.dyn_peer[57] 	lookupHopsSig:mean 	19.666666666667
scalar Network.dyn_peer[58] 	lookupTimeSig:mean 	2.3857142857143
scalar Network.dyn_peer[58] 	lookupStabilitySig:mean 	0.94278183925365
scalar Network.dyn_peer[58] 	lookupHopsSig:mean 	23
scalar Network.dyn_peer[59] 	lookupTimeSig:mean 	1.35
scalar Network.dyn_peer[59] 	lookupStabilitySig:mean 	0.35894013755023
scalar Network.dyn_peer[59] 	lookupHopsSig:mean 	12.75
scalar Network.dyn_peer[60] 	lookupTimeSig:mean 	1.975
scalar Network.dyn_peer[60] 	lookupStabilitySig:mean 	0.40088484622538
scalar Network.dyn_peer[60] 	lookupHopsSig:mean 	19
scalar Network.dyn_peer[61] 	lookupTimeSig:mean 	2.0428571428571
scalar Network.dyn_peer[61] 	lookupStabilitySig:mean 	0.82091656566731
scalar Network.dyn_peer[61] 	lookupHopsSig:mean 	19.571428571429
scalar Network.dyn_peer[62] 	lookupTimeSig:mean 	1.375
scalar Network.dyn_peer[62] 	lookupStabilitySig:mean 	0.74290799815208
scalar Network.dyn_peer[62] 	lookupHopsSig:mean 	13
scalar Network.dyn_peer[63] 	lookupTimeSig:mean 	2.14
scalar Network.dyn_peer[63] 	lookupStabilitySig:mean 	0.69318965598941
scalar Network.dyn_peer[63] 	lookupHopsSig:mean 	20.6
scalar Network.dyn_peer[64] 	lookupTimeSig:mean 	2.35
scalar Network.dyn_peer[64] 	lookupStabilitySig:mean 	0.64812270924449
scalar Network.dyn_peer[64] 	lookupHopsSig:mean 	22.666666666667
scalar Network.dyn_peer[65] 	lookupTimeSig:mean 	1.8166666666667
scalar Network.dyn_peer[65] 	lookupStabilitySig:mean 	0.74588965189954
scalar Network.dyn_peer[65] 	lookupHopsSig:mean 	17.333333333333
scalar Network.dyn_peer[66] 	lookupTimeSig:mean 	3.075
scalar Network.dyn_peer[66] 	lookupStabilitySig:mean 	0.74158370308578
scalar Network.dyn_peer[66] 	lookupHopsSig:mean 	30
scalar Network.dyn_peer[67] 	lookupTimeSig:mean 	1.8272727272727
scalar Network.dyn_peer[67] 	lookupStabilitySig:mean 	0.8843799950555
scalar Network.dyn_peer[67] 	lookupHopsSig:mean 	17.363636363636
scalar Network.dyn_peer[68] 	lookupTimeSig:mean 	1.5
scalar Network.dyn_peer[68] 	lookupStabilitySig:mean 	0.28751616179943
scalar Network.dyn_peer[68] 	lookupHopsSig:mean 	14.333333333333
scalar Network.dyn_peer[69] 	lookupTimeSig:mean 	2.2166666666667
scalar Network.dyn_peer[69] 	lookupStabilitySig:mean 	0.73242989601567
scalar Network.dyn_peer[69] 	lookupHopsSig:mean 	21.333333333333
scalar Network.dyn_peer[70] 	lookupTimeSig:mean 	1.5307692307692
scalar Network.dyn_peer[70] 	lookupStabilitySig:mean 	0.84216367536618
scalar Network.dyn_peer[70] 	lookupHopsSig:mean 	14.384615384615
scalar Network.dyn_peer[71] 	lookupTimeSig:mean 	2.1666666666667
scalar Network.dyn_peer[71] 	lookupStabilitySig:mean 	0.94404315234472
scalar Network.dyn_peer[71] 	lookupHopsSig:mean 	20.777777777778
scalar Network.dyn_peer[72] 	lookupTimeSig:mean 	2.7
scalar Network.dyn_peer[72] 	lookupStabilitySig:mean 	0.40327016885082
scalar Network.dyn_peer[72] 	lookupHopsSig:mean 	26.333333333333
scalar Network.dyn_peer[73] 	lookupTimeSig:mean 	3.12
scalar Network.dyn_peer[73] 	lookupStabilitySig:mean 	0.6230088442564
scalar Network.dyn_peer[73] 	lookupHopsSig:mean 	30.4
scalar Network.dyn_peer[74] 	lookupTimeSig:mean 	1.89
scalar Network.dyn_peer[74] 	lookupStabilitySig:mean 	0.6888645269908
scalar Network.dyn_peer[74] 	lookupHopsSig:mean 	18
scalar Network.dyn_peer[75] 	lookupTimeSig:mean 	1.8166666666667
scalar Network.dyn_peer[75] 	lookupStabilitySig:mean 	0.94794526603073
scalar Network.dyn_peer[75] 	lookupHopsSig:mean 	17.25
scalar Network.dyn_peer[76] 	lookupTimeSig:mean 	2.62
scalar Network.dyn_peer[76] 	lookupStabilitySig:mean 	0.82303506359458
scalar Network.dyn_peer[76] 	lookupHopsSig:mean 	25.4
scalar Network.dyn_peer[77] 	lookupTimeSig:mean 	1.925
scalar Network.dyn_peer[77] 	lookupStabilitySig:mean 	0.33518550358713
scalar Network.dyn_peer[77] 	lookupHopsSig:mean 	18.5
scalar Network.dyn_peer[78] 	lookupTimeSig:mean 	1.7357142857143
scalar Network.dyn_peer[78] 	lookupStabilitySig:mean 	0.921889266864
scalar Network.dyn_peer[78] 	lookupHopsSig:mean 	16.428571428571
scalar Network.dyn_peer[79] 	lookupTimeSig:mean 	1
scalar Network.dyn_peer[79] 	lookupStabilitySig:mean 	0.42588382959366
scalar Network.dyn_peer[79] 	lookupHopsSig:mean 	9.25
scalar Network.dyn_peer[80] 	lookupTimeSig:mean 	1.9125
scalar Network.dyn_peer[80] 	lookupStabilitySig:mean 	0.72524103219621
scalar Network.dyn_peer[80] 	lookupHopsSig:mean 	18.25
scalar Network.dyn_peer[81] 	lookupTimeSig:mean 	1.2714285714286
scalar Network.dyn_peer[81] 	lookupStabilitySig:mean 	0.90422226448676
scalar Network.dyn_peer[81] 	lookupHopsSig:mean 	11.857142857143
scalar Network.dyn_peer[82] 	lookupTimeSig:mean 	1.96
scalar Network.dyn_peer[82] 	lookupStabilitySig:mean 	0.60727064162493
scalar Network.dyn_peer[82] 	lookupHopsSig:mean 	18.8
scalar Network.dyn_peer[83] 	lookupTimeSig:mean 	1.66
scalar Network.dyn_peer[83] 	lookupStabilitySig:mean 	0.57692870646715
scalar Network.dyn_peer[83] 	lookupHopsSig:mean 	15.8
scalar Network.dyn_peer[84] 	lookupTimeSig:mean 	3.7333333333333
scalar Network.dyn_peer[84] 	lookupStabilitySig:mean 	0.84288278967142
scalar Network.dyn_peer[84] 	lookupHopsSig:mean 	36.666666666667
scalar Network.dyn_peer[85] 	lookupTimeSig:mean 	1.3666666666667
scalar Network.dyn_peer[85] 	lookupStabilitySig:mean 	0.35370369752248
scalar Network.dyn_peer[85] 	lookupHopsSig:mean 	13
scalar Network.dyn_peer[86] 	lookupTimeSig:mean 	1.6
scalar Network.dyn_peer[86] 	lookupStabilitySig:mean 	0.81924671507441
scalar Network.dyn_peer[86] 	lookupHopsSig:mean 	15.1
scalar Network.dyn_peer[87] 	lookupTimeSig:mean 	1.65
scalar Network.dyn_peer[87] 	lookupStabilitySig:mean 	0.79738946054131
scalar Network.dyn_peer[87] 	lookupHopsSig:mean 	15.6
scalar Network.dyn_peer[88] 	lookupTimeSig:mean 	2.1428571428571
scalar Network.dyn_peer[88] 	lookupStabilitySig:mean 	0.73186318150588
scalar Network.dyn_peer[88] 	lookupHopsSig:mean 	20.571428571429
scalar Network.dyn_peer[89] 	lookupTimeSig:mean 	1.525
scalar Network.dyn_peer[89] 	lookupStabilitySig:mean 	0.85729253222235
scalar Network.dyn_peer[89] 	lookupHopsSig:mean 	14.375
scalar Network.dyn_peer[90] 	lookupTimeSig:mean 	2.28
scalar Network.dyn_peer[90] 	lookupStabilitySig:mean 	0.91659119725227
scalar Network.dyn_peer[90] 	lookupHopsSig:mean 	22
scalar Network.dyn_peer[91] 	lookupTimeSig:mean 	1.8142857142857
scalar Network.dyn_peer[91] 	lookupStabilitySig:mean 	0.7241088077426
scalar Network.dyn_peer[91] 	lookupHopsSig:mean 	17.285714285714
scalar Network.dyn_peer[92] 	lookupTimeSig:mean 	3.175
scalar Network.dyn_peer[92] 	lookupStabilitySig:mean 	0.87499373499304
scalar Network.dyn_peer[92] 	lookupHopsSig:mean 	31
scalar Network.dyn_peer[93] 	lookupTimeSig:mean 	2.1333333333333
scalar Network.dyn_peer[93] 	lookupStabilitySig:mean 	0.80018640682101
scalar Network.dyn_peer[93] 	lookupHopsSig:mean 	20.444444444444
scalar Network.dyn_peer[94] 	lookupTimeSig:mean 	2.3666666666667
scalar Network.dyn_peer[94] 	lookupStabilitySig:mean 	0.86512462422252
scalar Network.dyn_peer[94] 	lookupHopsSig:mean 	22.833333333333
scalar Network.dyn_peer[95] 	lookupTimeSig:mean 	2.9333333333333
scalar Network.dyn_peer[95] 	lookupStabilitySig:mean 	0.81321035915365
scalar Network.dyn_peer[95] 	lookupHopsSig:mean 	28.5
scalar Network.dyn_peer[96] 	lookupTimeSig:mean 	2.58
scalar Network.dyn_peer[96] 	lookupStabilitySig:mean 	0.65878683850169
scalar Network.dyn_peer[96] 	lookupHopsSig:mean 	25
scalar Network.dyn_peer[97] 	lookupTimeSig:mean 	2.3428571428571
scalar Network.dyn_peer[97] 	lookupStabilitySig:mean 	0.65057645312377
scalar Network.dyn_peer[97] 	lookupHopsSig:mean 	22.571428571429
scalar Network.dyn_peer[98] 	lookupTimeSig:mean 	1.6
scalar Network.dyn_peer[98] 	lookupStabilitySig:mean 	0.92505677848951
scalar Network.dyn_peer[98] 	lookupHopsSig:mean 	15.111111111111
scalar Network.dyn_peer[99] 	lookupTimeSig:mean 	1.475
scalar Network.dyn_peer[99] 	lookupStabilitySig:mean 	0.40910134464502
scalar Network.dyn_peer[99] 	lookupHopsSig:mean 	14
scalar Network.dyn_peer[100] 	lookupTimeSig:mean 	4.4
scalar Network.dyn_peer[100] 	lookupStabilitySig:mean 	0.75312093396982
scalar Network.dyn_peer[100] 	lookupHopsSig:mean 	43.333333333333
scalar Network.dyn_peer[101] 	lookupTimeSig:mean 	2.8333333333333
scalar Network.dyn_peer[101] 	lookupStabilitySig:mean 	0.7597465167443
scalar Network.dyn_peer[101] 	lookupHopsSig:mean 	27.666666666667
scalar Network.dyn_peer[102] 	lookupTimeSig:mean 	2.025
scalar Network.dyn_peer[102] 	lookupStabilitySig:mean 	0.4714268585667
scalar Network.dyn_peer[102] 	lookupHopsSig:mean 	19.5
scalar Network.dyn_peer[103] 	lookupTimeSig:mean 	2.1
scalar Network.dyn_peer[103] 	lookupStabilitySig:mean 	0.50612794359525
scalar Network.dyn_peer[103] 	lookupHopsSig:mean 	20.333333333333
scalar Network.dyn_peer[104] 	lookupTimeSig:mean 	3.6333333333333
scalar Network.dyn_peer[104] 	lookupStabilitySig:mean 	0.63785003622373
scalar Network.dyn_peer[104] 	lookupHopsSig:mean 	35.666666666667
scalar Network.dyn_peer[105] 	lookupTimeSig:mean 	1.57
scalar Network.dyn_peer[105] 	lookupStabilitySig:mean 	0.79142406322062
scalar Network.dyn_peer[105] 	lookupHopsSig:mean 	14.8
scalar Network.dyn_peer[106] 	lookupTimeSig:mean 	1.5307692307692
scalar Network.dyn_peer[106] 	lookupStabilitySig:mean 	0.80124061504522
scalar Network.dyn_peer[106] 	lookupHopsSig:mean 	14.384615384615
scalar Network.dyn_peer[107] 	lookupTimeSig:mean 	2.08
scalar Network.dyn_peer[107] 	lookupStabilitySig:mean 	0.50931637696922
scalar Network.dyn_peer[107] 	lookupHopsSig:mean 	20
scalar Network.dyn_peer[108] 	lookupTimeSig:mean 	1.5555555555556
scalar Network.dyn_peer[108] 	lookupStabilitySig:mean 	0.7541325996216
scalar Network.dyn_peer[108] 	lookupHopsSig:mean 	14.666666666667
scalar Network.dyn_peer[109] 	lookupTimeSig:mean 	1.45
scalar Network.dyn_peer[109] 	lookupStabilitySig:mean 	0.52371490684648
scalar Network.dyn_peer[109] 	lookupHopsSig:mean 	13.666666666667
scalar Network.dyn_peer[110] 	lookupTimeSig:mean 	2.1
scalar Network.dyn_peer[110] 	lookupStabilitySig:mean 	0.90310528356349
scalar Network.dyn_peer[110] 	lookupHopsSig:mean 	20.125
scalar Network.dyn_peer[111] 	lookupTimeSig:mean 	1.5666666666667
scalar Network.dyn_peer[111] 	lookupStabilitySig:mean 	0.79107131498555
scalar Network.dyn_peer[111] 	lookupHopsSig:mean 	14.777777777778
scalar Network.dyn_peer[112] 	lookupTimeSig:mean 	1.4857142857143
scalar Network.dyn_peer[112] 	lookupStabilitySig:mean 	0.67402010923252
scalar Network.dyn_peer[112] 	lookupHopsSig:mean 	14
scalar Network.dyn_peer[113] 	lookupTimeSig:mean 	2.6666666666667
scalar Network.dyn_peer[113] 	lookupStabilitySig:mean 	0.56812038520972
scalar Network.dyn_peer[113] 	lookupHopsSig:mean 	26
scalar Network.dyn_peer[114] 	lookupTimeSig:mean 	1.4571428571429
scalar Network.dyn_peer[114] 	lookupStabilitySig:mean 	0.79101118458701
scalar Network.dyn_peer[114] 	lookupHopsSig:mean 	13.714285714286
scalar Network.dyn_peer[115] 	lookupTimeSig:mean 	3.82
scalar Network.dyn_peer[115] 	lookupStabilitySig:mean 	0.6916677094996
scalar Network.dyn_peer[115] 	lookupHopsSig:mean 	37.4
scalar Network.dyn_peer[116] 	lookupTimeSig:mean 	1.9
scalar Network.dyn_peer[116] 	lookupStabilitySig:mean 	0.74553204607219
scalar Network.dyn_peer[116] 	lookupHopsSig:mean 	18.25
scalar Network.dyn_peer[117] 	lookupTimeSig:mean 	1.175
scalar Network.dyn_peer[117] 	lookupStabilitySig:mean 	0.4881288446486
scalar Network.dyn_peer[117] 	lookupHopsSig:mean 	11
scalar Network.dyn_peer[118] 	lookupTimeSig:mean 	1.7083333333333
scalar Network.dyn_peer[118] 	lookupStabilitySig:mean 	0.9386039278858
scalar Network.dyn_peer[118] 	lookupHopsSig:mean 	16.166666666667
scalar Network.dyn_peer[119] 	lookupTimeSig:mean 	1.55
scalar Network.dyn_peer[119] 	lookupStabilitySig:mean 	0.80208575422876
scalar Network.dyn_peer[119] 	lookupHopsSig:mean 	14.625
scalar Network.dyn_peer[120] 	lookupTimeSig:mean 	1.8111111111111
scalar Network.dyn_peer[120] 	lookupStabilitySig:mean 	0.68467320625981
scalar Network.dyn_peer[120] 	lookupHopsSig:mean 	17.222222222222
scalar Network.dyn_peer[121] 	lookupTimeSig:mean 	1.5833333333333
scalar Network.dyn_peer[121] 	lookupStabilitySig:mean 	0.75147682086875
scalar Network.dyn_peer[121] 	lookupHopsSig:mean 	15
scalar Network.dyn_peer[122] 	lookupTimeSig:mean 	1.9
scalar Network.dyn_peer[122] 	lookupStabilitySig:mean 	0.32499999801318
scalar Network.dyn_peer[122] 	lookupHopsSig:mean 	18.333333333333
scalar Network.dyn_peer[123] 	lookupTimeSig:mean 	1.7777777777778
scalar Network.dyn_peer[123] 	lookupStabilitySig:mean 	0.91168838315126
scalar Network.dyn_peer[123] 	lookupHopsSig:mean 	16.888888888889
scalar Network.dyn_peer[124] 	lookupTimeSig:mean 	1.34
scalar Network.dyn_peer[124] 	lookupStabilitySig:mean 	0.5089353710413
scalar Network.dyn_peer[124] 	lookupHopsSig:mean 	12.6
scalar Network.dyn_peer[125] 	lookupTimeSig:mean 	1.6916666666667
scalar Network.dyn_peer[125] 	lookupStabilitySig:mean 	0.93185440912688
scalar Network.dyn_peer[125] 	lookupHopsSig:mean 	16
scalar Network.dyn_peer[126] 	lookupTimeSig:mean 	2.22
scalar Network.dyn_peer[126] 	lookupStabilitySig:mean 	0.54664887264371
scalar Network.dyn_peer[126] 	lookupHopsSig:mean 	21.4
scalar Network.dyn_peer[127] 	lookupTimeSig:mean 	2.65
scalar Network.dyn_peer[127] 	lookupStabilitySig:mean 	0.14323085546494
scalar Network.dyn_peer[127] 	lookupHopsSig:mean 	26
scalar Network.dyn_peer[128] 	lookupTimeSig:mean 	2.2
scalar Network.dyn_peer[128] 	lookupStabilitySig:mean 	0.66442161279597
scalar Network.dyn_peer[128] 	lookupHopsSig:mean 	21.142857142857
scalar Network.dyn_peer[129] 	lookupTimeSig:mean 	2.275
scalar Network.dyn_peer[129] 	lookupStabilitySig:mean 	0.72689305245876
scalar Network.dyn_peer[129] 	lookupHopsSig:mean 	22
scalar Network.dyn_peer[130] 	lookupTimeSig:mean 	2.0333333333333
scalar Network.dyn_peer[130] 	lookupStabilitySig:mean 	0.75642453351369
scalar Network.dyn_peer[130] 	lookupHopsSig:mean 	19.5
scalar Network.dyn_peer[131] 	lookupTimeSig:mean 	1.5142857142857
scalar Network.dyn_peer[131] 	lookupStabilitySig:mean 	0.82574028368773
scalar Network.dyn_peer[131] 	lookupHopsSig:mean 	14.214285714286
scalar Network.dyn_peer[132] 	lookupTimeSig:mean 	2.0166666666667
scalar Network.dyn_peer[132] 	lookupStabilitySig:mean 	0.75578694837168
scalar Network.dyn_peer[132] 	lookupHopsSig:mean 	19.333333333333
scalar Network.dyn_peer[133] 	lookupTimeSig:mean 	1.4
scalar Network.dyn_peer[133] 	lookupStabilitySig:mean 	0.70887589265476
scalar Network.dyn_peer[133] 	lookupHopsSig:mean 	13.125
scalar Network.dyn_peer[134] 	lookupTimeSig:mean 	2.58
scalar Network.dyn_peer[134] 	lookupStabilitySig:mean 	0.94081635149196
scalar Network.dyn_peer[134] 	lookupHopsSig:mean 	24.9
scalar Network.dyn_peer[135] 	lookupTimeSig:mean 	1.95
scalar Network.dyn_peer[135] 	lookupStabilitySig:mean 	0.50889860186726
scalar Network.dyn_peer[135] 	lookupHopsSig:mean 	18.75
scalar Network.dyn_peer[136] 	lookupTimeSig:mean 	1.4428571428571
scalar Network.dyn_peer[136] 	lookupStabilitySig:mean 	0.64088902941772
scalar Network.dyn_peer[136] 	lookupHopsSig:mean 	13.571428571429
scalar Network.dyn_peer[137] 	lookupTimeSig:mean 	2.5333333333333
scalar Network.dyn_peer[137] 	lookupStabilitySig:mean 	0.26516225934029
scalar Network.dyn_peer[137] 	lookupHopsSig:mean 	24.666666666667
scalar Network.dyn_peer[138] 	lookupTimeSig:mean 	0.97142857142857
scalar Network.dyn_peer[138] 	lookupStabilitySig:mean 	0.64168901049665
scalar Network.dyn_peer[138] 	lookupHopsSig:mean 	8.8571428571429
scalar Network.dyn_peer[139] 	lookupTimeSig:mean 	2.7666666666667
scalar Network.dyn_peer[139] 	lookupStabilitySig:mean 	0.87509423525383
scalar Network.dyn_peer[139] 	lookupHopsSig:mean 	26.833333333333
scalar Network.dyn_peer[140] 	lookupTimeSig:mean 	2.5571428571429
scalar Network.dyn_peer[140] 	lookupStabilitySig:mean 	0.68293818951185
scalar Network.dyn_peer[140] 	lookupHopsSig:mean 	24.714285714286
scalar Network.dyn_peer[141] 	lookupTimeSig:mean 	2.05
scalar Network.dyn_peer[141] 	lookupStabilitySig:mean 	0.71090685436502
scalar Network.dyn_peer[141] 	lookupHopsSig:mean 	19.75
scalar Network.dyn_peer[142] 	lookupTimeSig:mean 	1.6333333333333
scalar Network.dyn_peer[142] 	lookupStabilitySig:mean 	0.945890370834
scalar Network.dyn_peer[142] 	lookupHopsSig:mean 	15.416666666667
scalar Network.dyn_peer[143] 	lookupTimeSig:mean 	2.2
scalar Network.dyn_peer[143] 	lookupStabilitySig:mean 	0.93150074170747
scalar Network.dyn_peer[143] 	lookupHopsSig:mean 	21.083333333333
scalar Network.dyn_peer[144] 	lookupTimeSig:mean 	1.5
scalar Network.dyn_peer[144] 	lookupStabilitySig:mean 	0.5949792098254
scalar Network.dyn_peer[144] 	lookupHopsSig:mean 	14.166666666667
scalar Network.dyn_peer[145] 	lookupTimeSig:mean 	2.8857142857143
scalar Network.dyn_peer[145] 	lookupStabilitySig:mean 	0.9426826399618
scalar Network.dyn_peer[145] 	lookupHopsSig:mean 	28
scalar Network.dyn_peer[146] 	lookupTimeSig:mean 	2.5285714285714
scalar Network.dyn_peer[146] 	lookupStabilitySig:mean 	0.92897467528071
scalar Network.dyn_peer[146] 	lookupHopsSig:mean 	24.428571428571
scalar Network.dyn_peer[147] 	lookupTimeSig:mean 	2.1909090909091
scalar Network.dyn_peer[147] 	lookupStabilitySig:mean 	0.95927701805803
scalar Network.dyn_peer[147] 	lookupHopsSig:mean 	21
scalar Network.dyn_peer[148] 	lookupTimeSig:mean 	1.3454545454545
scalar Network.dyn_peer[148] 	lookupStabilitySig:mean 	0.9059836641589
scalar Network.dyn_peer[148] 	lookupHopsSig:mean 	12.545454545455
scalar Network.dyn_peer[149] 	lookupTimeSig:mean 	1.4285714285714
scalar Network.dyn_peer[149] 	lookupStabilitySig:mean 	0.65046412817069
scalar Network.dyn_peer[149] 	lookupHopsSig:mean 	13.428571428571
scalar Network.dyn_peer[150] 	lookupTimeSig:mean 	1.28
scalar Network.dyn_peer[150] 	lookupStabilitySig:mean 	0.84479785664007
scalar Network.dyn_peer[150] 	lookupHopsSig:mean 	11.9
scalar Network.dyn_peer[151] 	lookupTimeSig:mean 	3.0785714285714
scalar Network.dyn_peer[151] 	lookupStabilitySig:mean 	0.95422891776876
scalar Network.dyn_peer[151] 	lookupHopsSig:mean 	29.857142857143
scalar Network.dyn_peer[152] 	lookupTimeSig:mean 	1.6
scalar Network.dyn_peer[152] 	lookupStabilitySig:mean 	0.56004901230335
scalar Network.dyn_peer[152] 	lookupHopsSig:mean 	15.25
scalar Network.dyn_peer[153] 	lookupTimeSig:mean 	2.95
scalar Network.dyn_peer[153] 	lookupStabilitySig:mean 	0.029523834586143
scalar Network.dyn_peer[153] 	lookupHopsSig:mean 	29
scalar Network.dyn_peer[154] 	lookupTimeSig:mean 	1.8375
scalar Network.dyn_peer[154] 	lookupStabilitySig:mean 	0.92989559029229
scalar Network.dyn_peer[154] 	lookupHopsSig:mean 	17.5
scalar Network.dyn_peer[155] 	lookupTimeSig:mean 	1.7666666666667
scalar Network.dyn_peer[155] 	lookupStabilitySig:mean 	0.84139914888268
scalar Network.dyn_peer[155] 	lookupHopsSig:mean 	16.833333333333
scalar Network.dyn_peer[156] 	lookupTimeSig:mean 	1.95
scalar Network.dyn_peer[156] 	lookupStabilitySig:mean 	0.85586912259459
scalar Network.dyn_peer[156] 	lookupHopsSig:mean 	18.6
scalar Network.dyn_peer[157] 	lookupTimeSig:mean 	2.0875
scalar Network.dyn_peer[157] 	lookupStabilitySig:mean 	0.70337324112188
scalar Network.dyn_peer[157] 	lookupHopsSig:mean 	20
scalar Network.dyn_peer[158] 	lookupTimeSig:mean 	2.525
scalar Network.dyn_peer[158] 	lookupStabilitySig:mean 	0.68194907344878
scalar Network.dyn_peer[158] 	lookupHopsSig:mean 	24.5
scalar Network.dyn_peer[159] 	lookupTimeSig:mean 	1.8666666666667
scalar Network.dyn_peer[159] 	lookupStabilitySig:mean 	0.58296789756666
scalar Network.dyn_peer[159] 	lookupHopsSig:mean 	17.833333333333
scalar Network.dyn_peer[160] 	lookupTimeSig:mean 	1.4333333333333
scalar Network.dyn_peer[160] 	lookupStabilitySig:mean 	0.64548858565589
scalar Network.dyn_peer[160] 	lookupHopsSig:mean 	13.5
scalar Network.dyn_peer[161] 	lookupTimeSig:mean 	1.58
scalar Network.dyn_peer[161] 	lookupStabilitySig:mean 	0.75385522199795
scalar Network.dyn_peer[161] 	lookupHopsSig:mean 	14.9
scalar Network.dyn_peer[162] 	lookupTimeSig:mean 	2.0545454545455
scalar Network.dyn_peer[162] 	lookupStabilitySig:mean 	0.94821755451531
scalar Network.dyn_peer[162] 	lookupHopsSig:mean 	19.636363636364
scalar Network.dyn_peer[163] 	lookupTimeSig:mean 	1.5
scalar Network.dyn_peer[163] 	lookupStabilitySig:mean 	0.67335909046233
scalar Network.dyn_peer[163] 	lookupHopsSig:mean 	14.2
scalar Network.dyn_peer[164] 	lookupTimeSig:mean 	2.6
scalar Network.dyn_peer[164] 	lookupStabilitySig:mean 	0.93626785454237
scalar Network.dyn_peer[164] 	lookupHopsSig:mean 	25.111111111111
scalar Network.dyn_peer[165] 	lookupTimeSig:mean 	3
scalar Network.dyn_peer[165] 	lookupStabilitySig:mean 	0.78353643789887
scalar Network.dyn_peer[165] 	lookupHopsSig:mean 	29.25
scalar Network.dyn_peer[166] 	lookupTimeSig:mean 	3.775
scalar Network.dyn_peer[166] 	lookupStabilitySig:mean 	0.69399608625099
scalar Network.dyn_peer[166] 	lookupHopsSig:mean 	37
scalar Network.dyn_peer[167] 	lookupTimeSig:mean 	3.76
scalar Network.dyn_peer[167] 	lookupStabilitySig:mean 	0.90468203015625
scalar Network.dyn_peer[167] 	lookupHopsSig:mean 	36.8
scalar Network.dyn_peer[168] 	lookupTimeSig:mean 	1.475
scalar Network.dyn_peer[168] 	lookupStabilitySig:mean 	0.27985405176878
scalar Network.dyn_peer[168] 	lookupHopsSig:mean 	14
scalar Network.dyn_peer[169] 	lookupTimeSig:mean 	1.7
scalar Network.dyn_peer[169] 	lookupStabilitySig:mean 	0.57817890184621
scalar Network.dyn_peer[169] 	lookupHopsSig:mean 	16.166666666667
scalar Network.dyn_peer[170] 	lookupTimeSig:mean 	1.0857142857143
scalar Network.dyn_peer[170] 	lookupStabilitySig:mean 	0.70385940532599
scalar Network.dyn_peer[170] 	lookupHopsSig:mean 	10
scalar Network.dyn_peer[171] 	lookupTimeSig:mean 	1.4888888888889
scalar Network.dyn_peer[171] 	lookupStabilitySig:mean 	0.91889163300705
scalar Network.dyn_peer[171] 	lookupHopsSig:mean 	14
scalar Network.dyn_peer[172] 	lookupTimeSig:mean 	1.7666666666667
scalar Network.dyn_peer[172] 	lookupStabilitySig:mean 	0.37948718170325
scalar Network.dyn_peer[172] 	lookupHopsSig:mean 	17
scalar Network.dyn_peer[173] 	lookupTimeSig:mean 	1.5818181818182
scalar Network.dyn_peer[173] 	lookupStabilitySig:mean 	0.77049824773249
scalar Network.dyn_peer[173] 	lookupHopsSig:mean 	14.909090909091
scalar Network.dyn_peer[174] 	lookupTimeSig:mean 	2.1571428571429
scalar Network.dyn_peer[174] 	lookupStabilitySig:mean 	0.94168032958571
scalar Network.dyn_peer[174] 	lookupHopsSig:mean 	20.714285714286
scalar Network.dyn_peer[175] 	lookupTimeSig:mean 	1.725
scalar Network.dyn_peer[175] 	lookupStabilitySig:mean 	0.37048932351172
scalar Network.dyn_peer[175] 	lookupHopsSig:mean 	16.5
scalar Network.dyn_peer[176] 	lookupTimeSig:mean 	2.2
scalar Network.dyn_peer[176] 	lookupStabilitySig:mean 	0.45980805903673
scalar Network.dyn_peer[176] 	lookupHopsSig:mean 	21.25
scalar Network.dyn_peer[177] 	lookupTimeSig:mean 	2.4
scalar Network.dyn_peer[177] 	lookupStabilitySig:mean 	0.62126557976007
scalar Network.dyn_peer[177] 	lookupHopsSig:mean 	23.2
scalar Network.dyn_peer[178] 	lookupTimeSig:mean 	2.84
scalar Network.dyn_peer[178] 	lookupStabilitySig:mean 	0.67048975601792
scalar Network.dyn_peer[178] 	lookupHopsSig:mean 	27.6
scalar Network.dyn_peer[179] 	lookupTimeSig:mean 	1.9090909090909
scalar Network.dyn_peer[179] 	lookupStabilitySig:mean 	0.95773016136478
scalar Network.dyn_peer[179] 	lookupHopsSig:mean 	18.181818181818
scalar Network.dyn_peer[180] 	lookupTimeSig:mean 	1.35
scalar Network.dyn_peer[180] 	lookupStabilitySig:mean 	0.51347441039979
scalar Network.dyn_peer[180] 	lookupHopsSig:mean 	12.75
scalar Network.dyn_peer[181] 	lookupTimeSig:mean 	2.075
scalar Network.dyn_peer[181] 	lookupStabilitySig:mean 	0.4420457072556
scalar Network.dyn_peer[181] 	lookupHopsSig:mean 	20
scalar Network.dyn_peer[182] 	lookupTimeSig:mean 	2.46
scalar Network.dyn_peer[182] 	lookupStabilitySig:mean 	0.61071989238262
scalar Network.dyn_peer[182] 	lookupHopsSig:mean 	23.8
scalar Network.dyn_peer[183] 	lookupTimeSig:mean 	1.8428571428571
scalar Network.dyn_peer[183] 	lookupStabilitySig:mean 	0.82092967070639
scalar Network.dyn_peer[183] 	lookupHopsSig:mean 	17.571428571429
scalar Network.dyn_peer[184] 	lookupTimeSig:mean 	1.8
scalar Network.dyn_peer[184] 	lookupStabilitySig:mean 	0.76585092224802
scalar Network.dyn_peer[184] 	lookupHopsSig:mean 	17.166666666667
scalar Network.dyn_peer[185] 	lookupTimeSig:mean 	2.55
scalar Network.dyn_peer[185] 	lookupStabilitySig:mean 	0.70337366871536
scalar Network.dyn_peer[185] 	lookupHopsSig:mean 	24.75
scalar Network.dyn_peer[186] 	lookupTimeSig:mean 	1.625
scalar Network.dyn_peer[186] 	lookupStabilitySig:mean 	0.39256208017468
scalar Network.dyn_peer[186] 	lookupHopsSig:mean 	15.5
scalar Network.dyn_peer[187] 	lookupTimeSig:mean 	1.7666666666667
scalar Network.dyn_peer[187] 	lookupStabilitySig:mean 	0.64574560600643
scalar Network.dyn_peer[187] 	lookupHopsSig:mean 	16.833333333333
scalar Network.dyn_peer[188] 	lookupTimeSig:mean 	1.5625
scalar Network.dyn_peer[188] 	lookupStabilitySig:mean 	0.91307323228102
scalar Network.dyn_peer[188] 	lookupHopsSig:mean 	14.75
scalar Network.dyn_peer[189] 	lookupTimeSig:mean 	1.025
scalar Network.dyn_peer[189] 	lookupStabilitySig:mean 	0.54499999992549
scalar Network.dyn_peer[189] 	lookupHopsSig:mean 	9.5
scalar Network.dyn_peer[190] 	lookupTimeSig:mean 	2.025
scalar Network.dyn_peer[190] 	lookupStabilitySig:mean 	0.93052566354163
scalar Network.dyn_peer[190] 	lookupHopsSig:mean 	19.375
scalar Network.dyn_peer[191] 	lookupTimeSig:mean 	2.52
scalar Network.dyn_peer[191] 	lookupStabilitySig:mean 	0.64736655838788
scalar Network.dyn_peer[191] 	lookupHopsSig:mean 	24.4
scalar Network.dyn_peer[192] 	lookupTimeSig:mean 	1.8666666666667
scalar Network.dyn_peer[192] 	lookupStabilitySig:mean 	0.3801106903702
scalar Network.dyn_peer[192] 	lookupHopsSig:mean 	18
scalar Network.dyn_peer[193] 	lookupTimeSig:mean 	1.3125
scalar Network.dyn_peer[193] 	lookupStabilitySig:mean 	0.76321309420746
scalar Network.dyn_peer[193] 	lookupHopsSig:mean 	12.25
scalar Network.dyn_peer[194] 	lookupTimeSig:mean 	1.5666666666667
scalar Network.dyn_peer[194] 	lookupStabilitySig:mean 	0.67009520825619
scalar Network.dyn_peer[194] 	lookupHopsSig:mean 	14.833333333333
scalar Network.dyn_peer[195] 	lookupTimeSig:mean 	2.8
scalar Network.dyn_peer[195] 	lookupStabilitySig:mean 	0.4186330800876
scalar Network.dyn_peer[195] 	lookupHopsSig:mean 	27.25
scalar Network.dyn_peer[196] 	lookupTimeSig:mean 	3.42
scalar Network.dyn_peer[196] 	lookupStabilitySig:mean 	0.90504789799452
scalar Network.dyn_peer[196] 	lookupHopsSig:mean 	33.4
scalar Network.dyn_peer[197] 	lookupTimeSig:mean 	1.5615384615385
scalar Network.dyn_peer[197] 	lookupStabilitySig:mean 	0.95241453541586
scalar Network.dyn_peer[197] 	lookupHopsSig:mean 	14.692307692308
scalar Network.dyn_peer[198] 	lookupTimeSig:mean 	2.65
scalar Network.dyn_peer[198] 	lookupStabilitySig:mean 	0.93915837133924
scalar Network.dyn_peer[198] 	lookupHopsSig:mean 	25.666666666667
scalar Network.dyn_peer[199] 	lookupTimeSig:mean 	1.3666666666667
scalar Network.dyn_peer[199] 	lookupStabilitySig:mean 	0.76797587600433
scalar Network.dyn_peer[199] 	lookupHopsSig:mean 	12.777777777778
scalar Network.dyn_peer[200] 	lookupTimeSig:mean 	2.175
scalar Network.dyn_peer[200] 	lookupStabilitySig:mean 	0.40328625030816
scalar Network.dyn_peer[200] 	lookupHopsSig:mean 	21
scalar Network.dyn_peer[201] 	lookupTimeSig:mean 	2.8
scalar Network.dyn_peer[201] 	lookupStabilitySig:mean 	0.79799240330855
scalar Network.dyn_peer[201] 	lookupHopsSig:mean 	27.333333333333
scalar Network.dyn_peer[202] 	lookupTimeSig:mean 	2.65
scalar Network.dyn_peer[202] 	lookupStabilitySig:mean 	0.19125393033028
scalar Network.dyn_peer[202] 	lookupHopsSig:mean 	26
scalar Network.dyn_peer[203] 	lookupTimeSig:mean 	3.3
scalar Network.dyn_peer[203] 	lookupStabilitySig:mean 	0.36264395713806
scalar Network.dyn_peer[203] 	lookupHopsSig:mean 	32.333333333333
scalar Network.dyn_peer[204] 	lookupTimeSig:mean 	2.3333333333333
scalar Network.dyn_peer[204] 	lookupStabilitySig:mean 	0.70079121179879
scalar Network.dyn_peer[204] 	lookupHopsSig:mean 	22.5
scalar Network.dyn_peer[205] 	lookupTimeSig:mean 	1.45
scalar Network.dyn_peer[205] 	lookupStabilitySig:mean 	0.93324253438041
scalar Network.dyn_peer[205] 	lookupHopsSig:mean 	13.6
scalar Network.dyn_peer[206] 	lookupTimeSig:mean 	1.075
scalar Network.dyn_peer[206] 	lookupStabilitySig:mean 	0.71643972629681
scalar Network.dyn_peer[206] 	lookupHopsSig:mean 	9.875
scalar Network.dyn_peer[207] 	lookupTimeSig:mean 	2.2857142857143
scalar Network.dyn_peer[207] 	lookupStabilitySig:mean 	0.90921388646322
scalar Network.dyn_peer[207] 	lookupHopsSig:mean 	22
scalar Network.dyn_peer[208] 	lookupTimeSig:mean 	1.9142857142857
scalar Network.dyn_peer[208] 	lookupStabilitySig:mean 	0.6773850516017
scalar Network.dyn_peer[208] 	lookupHopsSig:mean 	18.285714285714
scalar Network.dyn_peer[209] 	lookupTimeSig:mean 	2.3166666666667
scalar Network.dyn_peer[209] 	lookupStabilitySig:mean 	0.92170621082187
scalar Network.dyn_peer[209] 	lookupHopsSig:mean 	22.25
scalar Network.dyn_peer[210] 	lookupTimeSig:mean 	1.8
scalar Network.dyn_peer[210] 	lookupStabilitySig:mean 	0.95247693901183
scalar Network.dyn_peer[210] 	lookupHopsSig:mean 	17.083333333333
scalar Network.dyn_peer[211] 	lookupTimeSig:mean 	2.44
scalar Network.dyn_peer[211] 	lookupStabilitySig:mean 	0.86444556564093
scalar Network.dyn_peer[211] 	lookupHopsSig:mean 	23.6
scalar Network.dyn_peer[212] 	lookupTimeSig:mean 	1.4833333333333
scalar Network.dyn_peer[212] 	lookupStabilitySig:mean 	0.82629807665944
scalar Network.dyn_peer[212] 	lookupHopsSig:mean 	14
scalar Network.dyn_peer[213] 	lookupTimeSig:mean 	1.725
scalar Network.dyn_peer[213] 	lookupStabilitySig:mean 	0.75860572047532
scalar Network.dyn_peer[213] 	lookupHopsSig:mean 	16.5
scalar Network.dyn_peer[214] 	lookupTimeSig:mean 	1.54
scalar Network.dyn_peer[214] 	lookupStabilitySig:mean 	0.49751641154289
scalar Network.dyn_peer[214] 	lookupHopsSig:mean 	14.6
scalar Network.dyn_peer[215] 	lookupTimeSig:mean 	1.625
scalar Network.dyn_peer[215] 	lookupStabilitySig:mean 	0.50452936161309
scalar Network.dyn_peer[215] 	lookupHopsSig:mean 	15.5
scalar Network.dyn_peer[216] 	lookupTimeSig:mean 	1.8363636363636
scalar Network.dyn_peer[216] 	lookupStabilitySig:mean 	0.95155139191245
scalar Network.dyn_peer[216] 	lookupHopsSig:mean 	17.454545454545
scalar Network.dyn_peer[217] 	lookupTimeSig:mean 	1.3076923076923
scalar Network.dyn_peer[217] 	lookupStabilitySig:mean 	0.84325108383424
scalar Network.dyn_peer[217] 	lookupHopsSig:mean 	12.153846153846
scalar Network.dyn_peer[218] 	lookupTimeSig:mean 	2.28
scalar Network.dyn_peer[218] 	lookupStabilitySig:mean 	0.57418692186475
scalar Network.dyn_peer[218] 	lookupHopsSig:mean 	22
scalar Network.dyn_peer[219] 	lookupTimeSig:mean 	1.875
scalar Network.dyn_peer[219] 	lookupStabilitySig:mean 	0.88483071688097
scalar Network.dyn_peer[219] 	lookupHopsSig:mean 	17.875
scalar Network.dyn_peer[220] 	lookupTimeSig:mean 	2.175
scalar Network.dyn_peer[220] 	lookupStabilitySig:mean 	0.90120032406412
scalar Network.dyn_peer[220] 	lookupHopsSig:mean 	21
scalar Network.dyn_peer[221] 	lookupTimeSig:mean 	1.95
scalar Network.dyn_peer[221] 	lookupStabilitySig:mean 	0.69508080960562
scalar Network.dyn_peer[221] 	lookupHopsSig:mean 	18.666666666667
scalar Network.dyn_peer[222] 	lookupTimeSig:mean 	3.7666666666667
scalar Network.dyn_peer[222] 	lookupStabilitySig:mean 	0.93517726768429
scalar Network.dyn_peer[222] 	lookupHopsSig:mean 	36.833333333333
scalar Network.dyn_peer[223] 	lookupTimeSig:mean 	1.26
scalar Network.dyn_peer[223] 	lookupStabilitySig:mean 	0.54216442033648
scalar Network.dyn_peer[223] 	lookupHopsSig:mean 	11.8
scalar Network.dyn_peer[224] 	lookupTimeSig:mean 	2.75
scalar Network.dyn_peer[224] 	lookupStabilitySig:mean 	0.77798009885009
scalar Network.dyn_peer[224] 	lookupHopsSig:mean 	26.75
scalar Network.dyn_peer[225] 	lookupTimeSig:mean 	1.46
scalar Network.dyn_peer[225] 	lookupStabilitySig:mean 	0.79106426080689
scalar Network.dyn_peer[225] 	lookupHopsSig:mean 	13.7
scalar Network.dyn_peer[226] 	lookupTimeSig:mean 	1.4833333333333
scalar Network.dyn_peer[226] 	lookupStabilitySig:mean 	0.67963421872507
scalar Network.dyn_peer[226] 	lookupHopsSig:mean 	14
scalar Network.dyn_peer[227] 	lookupTimeSig:mean 	4.3
scalar Network.dyn_peer[227] 	lookupStabilitySig:mean 	0.75217808410525
scalar Network.dyn_peer[227] 	lookupHopsSig:mean 	42.5
scalar Network.dyn_peer[228] 	lookupTimeSig:mean 	2.55
scalar Network.dyn_peer[228] 	lookupStabilitySig:mean 	0.18475453555584
scalar Network.dyn_peer[228] 	lookupHopsSig:mean 	25
scalar Network.dyn_peer[229] 	lookupTimeSig:mean 	2.2
scalar Network.dyn_peer[229] 	lookupStabilitySig:mean 	0.5578351393342
scalar Network.dyn_peer[229] 	lookupHopsSig:mean 	21.25
scalar Network.dyn_peer[230] 	lookupTimeSig:mean 	2.52
scalar Network.dyn_peer[230] 	lookupStabilitySig:mean 	0.88850547745824
scalar Network.dyn_peer[230] 	lookupHopsSig:mean 	24.4
scalar Network.dyn_peer[231] 	lookupTimeSig:mean 	3.65
scalar Network.dyn_peer[231] 	lookupStabilitySig:mean 	0.13326848298311
scalar Network.dyn_peer[231] 	lookupHopsSig:mean 	36
scalar Network.dyn_peer[232] 	lookupTimeSig:mean 	1.5428571428571
scalar Network.dyn_peer[232] 	lookupStabilitySig:mean 	0.72196838658835
scalar Network.dyn_peer[232] 	lookupHopsSig:mean 	14.571428571429
scalar Network.dyn_peer[233] 	lookupTimeSig:mean 	2.75
scalar Network.dyn_peer[233] 	lookupStabilitySig:mean 	0.73437499254942
scalar Network.dyn_peer[233] 	lookupHopsSig:mean 	27
scalar Network.dyn_peer[234] 	lookupTimeSig:mean 	2.1666666666667
scalar Network.dyn_peer[234] 	lookupStabilitySig:mean 	0.94374276356151
scalar Network.dyn_peer[234] 	lookupHopsSig:mean 	20.777777777778
scalar Network.dyn_peer[235] 	lookupTimeSig:mean 	4.25
scalar Network.dyn_peer[235] 	lookupStabilitySig:mean 	0.87817463744432
scalar Network.dyn_peer[235] 	lookupHopsSig:mean 	41.75
scalar Network.dyn_peer[236] 	lookupTimeSig:mean 	1.1714285714286
scalar Network.dyn_peer[236] 	lookupStabilitySig:mean 	0.74408449205969
scalar Network.dyn_peer[236] 	lookupHopsSig:mean 	10.857142857143
scalar Network.dyn_peer[237] 	lookupTimeSig:mean 	1.48
scalar Network.dyn_peer[237] 	lookupStabilitySig:mean 	0.75868421168998
scalar Network.dyn_peer[237] 	lookupHopsSig:mean 	13.9
scalar Network.dyn_peer[238] 	lookupTimeSig:mean 	1.7
scalar Network.dyn_peer[238] 	lookupStabilitySig:mean 	0.34820065150658
scalar Network.dyn_peer[238] 	lookupHopsSig:mean 	16.333333333333
scalar Network.dyn_peer[239] 	lookupTimeSig:mean 	1.23
scalar Network.dyn_peer[239] 	lookupStabilitySig:mean 	0.7347473250702
scalar Network.dyn_peer[239] 	lookupHopsSig:mean 	11.4
scalar Network.dyn_peer[240] 	lookupTimeSig:mean 	1.4
scalar Network.dyn_peer[240] 	lookupStabilitySig:mean 	0.15366225441297
scalar Network.dyn_peer[240] 	lookupHopsSig:mean 	13.333333333333
scalar Network.dyn_peer[241] 	lookupTimeSig:mean 	2.25
scalar Network.dyn_peer[241] 	lookupStabilitySig:mean 	0.8708680565469
scalar Network.dyn_peer[241] 	lookupHopsSig:mean 	21.666666666667
scalar Network.dyn_peer[242] 	lookupTimeSig:mean 	1.2
scalar Network.dyn_peer[242] 	lookupStabilitySig:mean 	0.60425661255916
scalar Network.dyn_peer[242] 	lookupHopsSig:mean 	11.166666666667
scalar Network.dyn_peer[243] 	lookupTimeSig:mean 	1.975
scalar Network.dyn_peer[243] 	lookupStabilitySig:mean 	0.8142191329971
scalar Network.dyn_peer[243] 	lookupHopsSig:mean 	19
scalar Network.dyn_peer[244] 	lookupTimeSig:mean 	2.1
scalar Network.dyn_peer[244] 	lookupStabilitySig:mean 	0.86483516144965
scalar Network.dyn_peer[244] 	lookupHopsSig:mean 	20.142857142857
scalar Network.dyn_peer[245] 	lookupTimeSig:mean 	1.3
scalar Network.dyn_peer[245] 	lookupStabilitySig:mean 	0.047727257013321
scalar Network.dyn_peer[245] 	lookupHopsSig:mean 	12.5
scalar Network.dyn_peer[246] 	lookupTimeSig:mean 	2.0714285714286
scalar Network.dyn_peer[246] 	lookupStabilitySig:mean 	0.94596650092197
scalar Network.dyn_peer[246] 	lookupHopsSig:mean 	19.857142857143
scalar Network.dyn_peer[247] 	lookupTimeSig:mean 	1.5222222222222
scalar Network.dyn_peer[247] 	lookupStabilitySig:mean 	0.77304445807305
scalar Network.dyn_peer[247] 	lookupHopsSig:mean 	14.333333333333
scalar Network.dyn_peer[248] 	lookupTimeSig:mean 	2.55
scalar Network.dyn_peer[248] 	lookupStabilitySig:mean 	0.47159857302904
scalar Network.dyn_peer[248] 	lookupHopsSig:mean 	25
scalar Network.dyn_peer[249] 	lookupTimeSig:mean 	2.55
scalar Network.dyn_peer[249] 	lookupStabilitySig:mean 	0.61954887211323
scalar Network.dyn_peer[249] 	lookupHopsSig:mean 	25
scalar Network.dyn_peer[250] 	lookupTimeSig:mean 	1.7142857142857
scalar Network.dyn_peer[250] 	lookupStabilitySig:mean 	0.90216558506446
scalar Network.dyn_peer[250] 	lookupHopsSig:mean 	16.285714285714
scalar Network.dyn_peer[251] 	lookupTimeSig:mean 	0.65
scalar Network.dyn_peer[251] 	lookupStabilitySig:mean 	0.38538960367441
scalar Network.dyn_peer[251] 	lookupHopsSig:mean 	5.75
scalar Network.dyn_peer[252] 	lookupTimeSig:mean 	2.0666666666667
scalar Network.dyn_peer[252] 	lookupStabilitySig:mean 	0.77564782794151
scalar Network.dyn_peer[252] 	lookupHopsSig:mean 	19.777777777778
scalar Network.dyn_peer[253] 	lookupTimeSig:mean 	1.75
scalar Network.dyn_peer[253] 	lookupStabilitySig:mean 	0.91418585611973
scalar Network.dyn_peer[253] 	lookupHopsSig:mean 	16.625
scalar Network.dyn_peer[254] 	lookupTimeSig:mean 	2.2571428571429
scalar Network.dyn_peer[254] 	lookupStabilitySig:mean 	0.90914298753653
scalar Network.dyn_peer[254] 	lookupHopsSig:mean 	21.714285714286
scalar Network.dyn_peer[255] 	lookupTimeSig:mean 	2.225
scalar Network.dyn_peer[255] 	lookupStabilitySig:mean 	0.95263479347341
scalar Network.dyn_peer[255] 	lookupHopsSig:mean 	21.375
scalar Network.dyn_peer[256] 	lookupTimeSig:mean 	2.0555555555556
scalar Network.dyn_peer[256] 	lookupStabilitySig:mean 	0.92513493510584
scalar Network.dyn_peer[256] 	lookupHopsSig:mean 	19.666666666667
scalar Network.dyn_peer[257] 	lookupTimeSig:mean 	2.04
scalar Network.dyn_peer[257] 	lookupStabilitySig:mean 	0.88998435977846
scalar Network.dyn_peer[257] 	lookupHopsSig:mean 	19.6
scalar Network.dyn_peer[258] 	lookupTimeSig:mean 	1.925
scalar Network.dyn_peer[258] 	lookupStabilitySig:mean 	0.47145410068333
scalar Network.dyn_peer[258] 	lookupHopsSig:mean 	18.5
scalar Network.dyn_peer[259] 	lookupTimeSig:mean 	1.51
scalar Network.dyn_peer[259] 	lookupStabilitySig:mean 	0.88739817338064
scalar Network.dyn_peer[259] 	lookupHopsSig:mean 	14.2
scalar Network.dyn_peer[260] 	lookupTimeSig:mean 	1.5333333333333
scalar Network.dyn_peer[260] 	lookupStabilitySig:mean 	0.72121913048128
scalar Network.dyn_peer[260] 	lookupHopsSig:mean 	14.666666666667
scalar Network.dyn_peer[261] 	lookupTimeSig:mean 	0.875
scalar Network.dyn_peer[261] 	lookupStabilitySig:mean 	0.51666665822268
scalar Network.dyn_peer[261] 	lookupHopsSig:mean 	8
scalar Network.dyn_peer[262] 	lookupTimeSig:mean 	1.55
scalar Network.dyn_peer[262] 	lookupStabilitySig:mean 	0.48236063588411
scalar Network.dyn_peer[262] 	lookupHopsSig:mean 	14.75
scalar Network.dyn_peer[263] 	lookupTimeSig:mean 	0.95
scalar Network.dyn_peer[263] 	lookupStabilitySig:mean 	0.50873939134181
scalar Network.dyn_peer[263] 	lookupHopsSig:mean 	8.75
scalar Network.dyn_peer[264] 	lookupTimeSig:mean 	2.575
scalar Network.dyn_peer[264] 	lookupStabilitySig:mean 	0.85711704939604
scalar Network.dyn_peer[264] 	lookupHopsSig:mean 	25
scalar Network.dyn_peer[265] 	lookupTimeSig:mean 	3.1666666666667
scalar Network.dyn_peer[265] 	lookupStabilitySig:mean 	0.7681468774875
scalar Network.dyn_peer[265] 	lookupHopsSig:mean 	31
scalar Network.dyn_peer[266] 	lookupTimeSig:mean 	3.2333333333333
scalar Network.dyn_peer[266] 	lookupStabilitySig:mean 	0.78303431471189
scalar Network.dyn_peer[266] 	lookupHopsSig:mean 	31.666666666667
scalar Network.dyn_peer[267] 	lookupTimeSig:mean 	2.0875
scalar Network.dyn_peer[267] 	lookupStabilitySig:mean 	0.70693576405756
scalar Network.dyn_peer[267] 	lookupHopsSig:mean 	20
scalar Network.dyn_peer[268] 	lookupTimeSig:mean 	1.875
scalar Network.dyn_peer[268] 	lookupStabilitySig:mean 	0.42567586991936
scalar Network.dyn_peer[268] 	lookupHopsSig:mean 	18
scalar Network.dyn_peer[269] 	lookupTimeSig:mean 	1.95
scalar Network.dyn_peer[269] 	lookupStabilitySig:mean 	0.84573679277673
scalar Network.dyn_peer[269] 	lookupHopsSig:mean 	18.666666666667
scalar Network.dyn_peer[270] 	lookupTimeSig:mean 	1.8
scalar Network.dyn_peer[270] 	lookupStabilitySig:mean 	0.94009388765941
scalar Network.dyn_peer[270] 	lookupHopsSig:mean 	17.111111111111
scalar Network.dyn_peer[271] 	lookupTimeSig:mean 	2.36
scalar Network.dyn_peer[271] 	lookupStabilitySig:mean 	0.82344300188124
scalar Network.dyn_peer[271] 	lookupHopsSig:mean 	22.8
scalar Network.dyn_peer[272] 	lookupTimeSig:mean 	1.38
scalar Network.dyn_peer[272] 	lookupStabilitySig:mean 	0.72369816377759
scalar Network.dyn_peer[272] 	lookupHopsSig:mean 	12.9
scalar Network.dyn_peer[273] 	lookupTimeSig:mean 	0.7
scalar Network.dyn_peer[273] 	lookupStabilitySig:mean 	0.31794871389866
scalar Network.dyn_peer[273] 	lookupHopsSig:mean 	6.3333333333333
scalar Network.dyn_peer[274] 	lookupTimeSig:mean 	1.3571428571429
scalar Network.dyn_peer[274] 	lookupStabilitySig:mean 	0.74679517067437
scalar Network.dyn_peer[274] 	lookupHopsSig:mean 	12.714285714286
scalar Network.dyn_peer[275] 	lookupTimeSig:mean 	2
scalar Network.dyn_peer[275] 	lookupStabilitySig:mean 	0.73670588939318
scalar Network.dyn_peer[275] 	lookupHopsSig:mean 	19.142857142857
scalar Network.dyn_peer[276] 	lookupTimeSig:mean 	2.025
scalar Network.dyn_peer[276] 	lookupStabilitySig:mean 	0.90706065840398
scalar Network.dyn_peer[276] 	lookupHopsSig:mean 	19.333333333333
scalar Network.dyn_peer[277] 	lookupTimeSig:mean 	2.3428571428571
scalar Network.dyn_peer[277] 	lookupStabilitySig:mean 	0.70270511614425
scalar Network.dyn_peer[277] 	lookupHopsSig:mean 	22.571428571429
scalar Network.dyn_peer[278] 	lookupTimeSig:mean 	2.5
scalar Network.dyn_peer[278] 	lookupStabilitySig:mean 	0.47296511381865
scalar Network.dyn_peer[278] 	lookupHopsSig:mean 	24.25
scalar Network.dyn_peer[279] 	lookupTimeSig:mean 	1.625
scalar Network.dyn_peer[279] 	lookupStabilitySig:mean 	0.55638112616725
scalar Network.dyn_peer[279] 	lookupHopsSig:mean 	15.5
scalar Network.dyn_peer[280] 	lookupTimeSig:mean 	2.0777777777778
scalar Network.dyn_peer[280] 	lookupStabilitySig:mean 	0.81316307352649
scalar Network.dyn_peer[280] 	lookupHopsSig:mean 	19.888888888889
scalar Network.dyn_peer[281] 	lookupTimeSig:mean 	1.9
scalar Network.dyn_peer[281] 	lookupStabilitySig:mean 	0.78895874100272
scalar Network.dyn_peer[281] 	lookupHopsSig:mean 	18.125
scalar Network.dyn_peer[282] 	lookupTimeSig:mean 	1.675
scalar Network.dyn_peer[282] 	lookupStabilitySig:mean 	0.38557202927768
scalar Network.dyn_peer[282] 	lookupHopsSig:mean 	16
scalar Network.dyn_peer[283] 	lookupTimeSig:mean 	1.4571428571429
scalar Network.dyn_peer[283] 	lookupStabilitySig:mean 	0.79709720531745
scalar Network.dyn_peer[283] 	lookupHopsSig:mean 	13.714285714286
scalar Network.dyn_peer[284] 	lookupTimeSig:mean 	1.92
scalar Network.dyn_peer[284] 	lookupStabilitySig:mean 	0.71398126259446
scalar Network.dyn_peer[284] 	lookupHopsSig:mean 	18.4
scalar Network.dyn_peer[285] 	lookupTimeSig:mean 	3.95
scalar Network.dyn_peer[285] 	lookupStabilitySig:mean 	0.68894131341949
scalar Network.dyn_peer[285] 	lookupHopsSig:mean 	38.666666666667
scalar Network.dyn_peer[286] 	lookupTimeSig:mean 	1.8
scalar Network.dyn_peer[286] 	lookupStabilitySig:mean 	0.86542261977281
scalar Network.dyn_peer[286] 	lookupHopsSig:mean 	17.142857142857
scalar Network.dyn_peer[287] 	lookupTimeSig:mean 	1.2333333333333
scalar Network.dyn_peer[287] 	lookupStabilitySig:mean 	0.3261562983195
scalar Network.dyn_peer[287] 	lookupHopsSig:mean 	11.666666666667
scalar Network.dyn_peer[288] 	lookupTimeSig:mean 	2.125
scalar Network.dyn_peer[288] 	lookupStabilitySig:mean 	0.81535509880632
scalar Network.dyn_peer[288] 	lookupHopsSig:mean 	20.5
scalar Network.dyn_peer[289] 	lookupTimeSig:mean 	2.32
scalar Network.dyn_peer[289] 	lookupStabilitySig:mean 	0.88679297231138
scalar Network.dyn_peer[289] 	lookupHopsSig:mean 	22.4
scalar Network.dyn_peer[290] 	lookupTimeSig:mean 	1.76
scalar Network.dyn_peer[290] 	lookupStabilitySig:mean 	0.87435784395784
scalar Network.dyn_peer[290] 	lookupHopsSig:mean 	16.7
scalar Network.dyn_peer[291] 	lookupTimeSig:mean 	1.9888888888889
scalar Network.dyn_peer[291] 	lookupStabilitySig:mean 	0.78389998608165
scalar Network.dyn_peer[291] 	lookupHopsSig:mean 	19
scalar Network.dyn_peer[292] 	lookupTimeSig:mean 	2.2
scalar Network.dyn_peer[292] 	lookupStabilitySig:mean 	0.5886597931385
scalar Network.dyn_peer[292] 	lookupHopsSig:mean 	21.5
scalar Network.dyn_peer[293] 	lookupTimeSig:mean 	1.3583333333333
scalar Network.dyn_peer[293] 	lookupStabilitySig:mean 	0.96751588786719
scalar Network.dyn_peer[293] 	lookupHopsSig:mean 	12.666666666667
scalar Network.dyn_peer[294] 	lookupTimeSig:mean 	1.9357142857143
scalar Network.dyn_peer[294] 	lookupStabilitySig:mean 	0.91895734638508
scalar Network.dyn_peer[294] 	lookupHopsSig:mean 	18.428571428571
scalar Network.dyn_peer[295] 	lookupTimeSig:mean 	2.0090909090909
scalar Network.dyn_peer[295] 	lookupStabilitySig:mean 	0.84482843030921
scalar Network.dyn_peer[295] 	lookupHopsSig:mean 	19.181818181818
scalar Network.dyn_peer[296] 	lookupTimeSig:mean 	1.825
scalar Network.dyn_peer[296] 	lookupStabilitySig:mean 	0.54315418563783
scalar Network.dyn_peer[296] 	lookupHopsSig:mean 	17.5
scalar Network.dyn_peer[297] 	lookupTimeSig:mean 	1.475
scalar Network.dyn_peer[297] 	lookupStabilitySig:mean 	0.72284327307716
scalar Network.dyn_peer[297] 	lookupHopsSig:mean 	13.875
scalar Network.dyn_peer[298] 	lookupTimeSig:mean 	3.025
scalar Network.dyn_peer[298] 	lookupStabilitySig:mean 	0.83552912063897
scalar Network.dyn_peer[298] 	lookupHopsSig:mean 	29.5
scalar Network.dyn_peer[299] 	lookupTimeSig:mean 	2.075
scalar Network.dyn_peer[299] 	lookupStabilitySig:mean 	0.91985383362044
scalar Network.dyn_peer[299] 	lookupHopsSig:mean 	19.875
scalar Network.dyn_peer[300] 	lookupTimeSig:mean 	1.85
scalar Network.dyn_peer[300] 	lookupStabilitySig:mean 	0.47952586039901
scalar Network.dyn_peer[300] 	lookupHopsSig:mean 	18
scalar Network.dyn_peer[301] 	lookupTimeSig:mean 	1.75
scalar Network.dyn_peer[301] 	lookupStabilitySig:mean 	0.56923880742397
scalar Network.dyn_peer[301] 	lookupHopsSig:mean 	16.75
scalar Network.dyn_peer[302] 	lookupTimeSig:mean 	1.625
scalar Network.dyn_peer[302] 	lookupStabilitySig:mean 	0.58247662894428
scalar Network.dyn_peer[302] 	lookupHopsSig:mean 	15.5
scalar Network.dyn_peer[303] 	lookupTimeSig:mean 	1.4625
scalar Network.dyn_peer[303] 	lookupStabilitySig:mean 	0.73441233183257
scalar Network.dyn_peer[303] 	lookupHopsSig:mean 	13.75
scalar Network.dyn_peer[304] 	lookupTimeSig:mean 	2.25
scalar Network.dyn_peer[304] 	lookupStabilitySig:mean 	0.41570512019098
scalar Network.dyn_peer[304] 	lookupHopsSig:mean 	21.75
scalar Network.dyn_peer[305] 	lookupTimeSig:mean 	2.4
scalar Network.dyn_peer[305] 	lookupStabilitySig:mean 	0.56216972321272
scalar Network.dyn_peer[305] 	lookupHopsSig:mean 	23.333333333333
scalar Network.dyn_peer[306] 	lookupTimeSig:mean 	1.8285714285714
scalar Network.dyn_peer[306] 	lookupStabilitySig:mean 	0.94336050163422
scalar Network.dyn_peer[306] 	lookupHopsSig:mean 	17.428571428571
scalar Network.dyn_peer[307] 	lookupTimeSig:mean 	2.3
scalar Network.dyn_peer[307] 	lookupStabilitySig:mean 	0.46123169083148
scalar Network.dyn_peer[307] 	lookupHopsSig:mean 	22.25
scalar Network.dyn_peer[308] 	lookupTimeSig:mean 	1.2166666666667
scalar Network.dyn_peer[308] 	lookupStabilitySig:mean 	0.56920486564438
scalar Network.dyn_peer[308] 	lookupHopsSig:mean 	11.333333333333
scalar Network.dyn_peer[309] 	lookupTimeSig:mean 	4.6333333333333
scalar Network.dyn_peer[309] 	lookupStabilitySig:mean 	0.81287004301945
scalar Network.dyn_peer[309] 	lookupHopsSig:mean 	45.666666666667
scalar Network.dyn_peer[310] 	lookupTimeSig:mean 	7.95
scalar Network.dyn_peer[310] 	lookupStabilitySig:mean 	0.78375564515591
scalar Network.dyn_peer[310] 	lookupHopsSig:mean 	79
scalar Network.dyn_peer[311] 	lookupTimeSig:mean 	2.3
scalar Network.dyn_peer[311] 	lookupStabilitySig:mean 	0.91041193529963
scalar Network.dyn_peer[311] 	lookupHopsSig:mean 	22.142857142857
scalar Network.dyn_peer[312] 	lookupTimeSig:mean 	1.55
scalar Network.dyn_peer[312] 	lookupStabilitySig:mean 	0.80469995960593
scalar Network.dyn_peer[312] 	lookupHopsSig:mean 	14.6
scalar Network.dyn_peer[313] 	lookupTimeSig:mean 	0.725
scalar Network.dyn_peer[313] 	lookupStabilitySig:mean 	0.50881733000278
scalar Network.dyn_peer[313] 	lookupHopsSig:mean 	6.5
scalar Network.dyn_peer[314] 	lookupTimeSig:mean 	2.85
scalar Network.dyn_peer[314] 	lookupStabilitySig:mean 	0.80683402204886
scalar Network.dyn_peer[314] 	lookupHopsSig:mean 	27.625
scalar Network.dyn_peer[315] 	lookupTimeSig:mean 	2.2333333333333
scalar Network.dyn_peer[315] 	lookupStabilitySig:mean 	0.42933558424314
scalar Network.dyn_peer[315] 	lookupHopsSig:mean 	21.666666666667
scalar Network.dyn_peer[316] 	lookupTimeSig:mean 	1.12
scalar Network.dyn_peer[316] 	lookupStabilitySig:mean 	0.72899511102587
scalar Network.dyn_peer[316] 	lookupHopsSig:mean 	10.3
scalar Network.dyn_peer[317] 	lookupTimeSig:mean 	1.5888888888889
scalar Network.dyn_peer[317] 	lookupStabilitySig:mean 	0.89574700743995
scalar Network.dyn_peer[317] 	lookupHopsSig:mean 	15
scalar Network.dyn_peer[318] 	lookupTimeSig:mean 	2.98
scalar Network.dyn_peer[318] 	lookupStabilitySig:mean 	0.8857732731849
scalar Network.dyn_peer[318] 	lookupHopsSig:mean 	29
scalar Network.dyn_peer[319] 	lookupTimeSig:mean 	1.2571428571429
scalar Network.dyn_peer[319] 	lookupStabilitySig:mean 	0.91341751467969
scalar Network.dyn_peer[319] 	lookupHopsSig:mean 	11.714285714286
scalar Network.dyn_peer[320] 	lookupTimeSig:mean 	2.7
scalar Network.dyn_peer[320] 	lookupStabilitySig:mean 	0.84677934972569
scalar Network.dyn_peer[320] 	lookupHopsSig:mean 	26.333333333333
scalar Network.dyn_peer[321] 	lookupTimeSig:mean 	1.66
scalar Network.dyn_peer[321] 	lookupStabilitySig:mean 	0.79520022496581
scalar Network.dyn_peer[321] 	lookupHopsSig:mean 	15.8
scalar Network.dyn_peer[322] 	lookupTimeSig:mean 	3.05
scalar Network.dyn_peer[322] 	lookupStabilitySig:mean 	0.79315363615751
scalar Network.dyn_peer[322] 	lookupHopsSig:mean 	29.75
scalar Network.dyn_peer[323] 	lookupTimeSig:mean 	2.5
scalar Network.dyn_peer[323] 	lookupStabilitySig:mean 	0.55055786073208
scalar Network.dyn_peer[323] 	lookupHopsSig:mean 	24.2
scalar Network.dyn_peer[324] 	lookupTimeSig:mean 	1.8444444444444
scalar Network.dyn_peer[324] 	lookupStabilitySig:mean 	0.91223989489178
scalar Network.dyn_peer[324] 	lookupHopsSig:mean 	17.555555555556
scalar Network.dyn_peer[325] 	lookupTimeSig:mean 	2.3111111111111
scalar Network.dyn_peer[325] 	lookupStabilitySig:mean 	0.95489611166219
scalar Network.dyn_peer[325] 	lookupHopsSig:mean 	22.222222222222
scalar Network.dyn_peer[326] 	lookupTimeSig:mean 	2.0625
scalar Network.dyn_peer[326] 	lookupStabilitySig:mean 	0.80071309162304
scalar Network.dyn_peer[326] 	lookupHopsSig:mean 	19.75
scalar Network.dyn_peer[327] 	lookupTimeSig:mean 	2.15
scalar Network.dyn_peer[327] 	lookupStabilitySig:mean 	0.48897987417877
scalar Network.dyn_peer[327] 	lookupHopsSig:mean 	20.75
scalar Network.dyn_peer[328] 	lookupTimeSig:mean 	1.8125
scalar Network.dyn_peer[328] 	lookupStabilitySig:mean 	0.77692474448122
scalar Network.dyn_peer[328] 	lookupHopsSig:mean 	17.25
scalar Network.dyn_peer[329] 	lookupTimeSig:mean 	1.4
scalar Network.dyn_peer[329] 	lookupStabilitySig:mean 	0.80255434227486
scalar Network.dyn_peer[329] 	lookupHopsSig:mean 	13.166666666667
scalar Network.dyn_peer[330] 	lookupTimeSig:mean 	1.3857142857143
scalar Network.dyn_peer[330] 	lookupStabilitySig:mean 	0.63315798129354
scalar Network.dyn_peer[330] 	lookupHopsSig:mean 	13
scalar Network.dyn_peer[331] 	lookupTimeSig:mean 	1.68
scalar Network.dyn_peer[331] 	lookupStabilitySig:mean 	0.70081453770399
scalar Network.dyn_peer[331] 	lookupHopsSig:mean 	16
scalar Network.dyn_peer[332] 	lookupTimeSig:mean 	2.25
scalar Network.dyn_peer[332] 	lookupStabilitySig:mean 	0.5659536300227
scalar Network.dyn_peer[332] 	lookupHopsSig:mean 	21.75
scalar Network.dyn_peer[333] 	lookupTimeSig:mean 	1.7125
scalar Network.dyn_peer[333] 	lookupStabilitySig:mean 	0.75966864265501
scalar Network.dyn_peer[333] 	lookupHopsSig:mean 	16.25
scalar Network.dyn_peer[334] 	lookupTimeSig:mean 	1.85
scalar Network.dyn_peer[334] 	lookupStabilitySig:mean 	0.7519219936803
scalar Network.dyn_peer[334] 	lookupHopsSig:mean 	17.75
scalar Network.dyn_peer[335] 	lookupTimeSig:mean 	1.1
scalar Network.dyn_peer[335] 	lookupStabilitySig:mean 	0.71122320617239
scalar Network.dyn_peer[335] 	lookupHopsSig:mean 	10.166666666667
scalar Network.dyn_peer[336] 	lookupTimeSig:mean 	1.4928571428571
scalar Network.dyn_peer[336] 	lookupStabilitySig:mean 	0.84099810781689
scalar Network.dyn_peer[336] 	lookupHopsSig:mean 	14
scalar Network.dyn_peer[337] 	lookupTimeSig:mean 	1.09
scalar Network.dyn_peer[337] 	lookupStabilitySig:mean 	0.85439906213433
scalar Network.dyn_peer[337] 	lookupHopsSig:mean 	10
scalar Network.dyn_peer[338] 	lookupTimeSig:mean 	1.29375
scalar Network.dyn_peer[338] 	lookupStabilitySig:mean 	0.856773280364
scalar Network.dyn_peer[338] 	lookupHopsSig:mean 	12
scalar Network.dyn_peer[339] 	lookupTimeSig:mean 	1.7666666666667
scalar Network.dyn_peer[339] 	lookupStabilitySig:mean 	0.750028922533
scalar Network.dyn_peer[339] 	lookupHopsSig:mean 	16.833333333333
scalar Network.dyn_peer[340] 	lookupTimeSig:mean 	2
scalar Network.dyn_peer[340] 	lookupStabilitySig:mean 	0.76316322293133
scalar Network.dyn_peer[340] 	lookupHopsSig:mean 	19.25
scalar Network.dyn_peer[341] 	lookupTimeSig:mean 	1.95
scalar Network.dyn_peer[341] 	lookupStabilitySig:mean 	0.90995857484328
scalar Network.dyn_peer[341] 	lookupHopsSig:mean 	18.666666666667
scalar Network.dyn_peer[342] 	lookupTimeSig:mean 	3.7
scalar Network.dyn_peer[342] 	lookupStabilitySig:mean 	0.81576471899947
scalar Network.dyn_peer[342] 	lookupHopsSig:mean 	36.333333333333
scalar Network.dyn_peer[343] 	lookupTimeSig:mean 	2
scalar Network.dyn_peer[343] 	lookupStabilitySig:mean 	0.68643616396002
scalar Network.dyn_peer[343] 	lookupHopsSig:mean 	19.125
scalar Network.dyn_peer[344] 	lookupTimeSig:mean 	2.1
scalar Network.dyn_peer[344] 	lookupStabilitySig:mean 	0.82129396861419
scalar Network.dyn_peer[344] 	lookupHopsSig:mean 	20.1
scalar Network.dyn_peer[345] 	lookupTimeSig:mean 	2.02
scalar Network.dyn_peer[345] 	lookupStabilitySig:mean 	0.67550291605294
scalar Network.dyn_peer[345] 	lookupHopsSig:mean 	19.4
scalar Network.dyn_peer[346] 	lookupTimeSig:mean 	1.25
scalar Network.dyn_peer[346] 	lookupStabilitySig:mean 	0.081339702010155
scalar Network.dyn_peer[346] 	lookupHopsSig:mean 	12
scalar Network.dyn_peer[347] 	lookupTimeSig:mean 	1.8
scalar Network.dyn_peer[347] 	lookupStabilitySig:mean 	0.86547748672848
scalar Network.dyn_peer[347] 	lookupHopsSig:mean 	17.076923076923
scalar Network.dyn_peer[348] 	lookupTimeSig:mean 	2.4333333333333
scalar Network.dyn_peer[348] 	lookupStabilitySig:mean 	0.91182660466681
scalar Network.dyn_peer[348] 	lookupHopsSig:mean 	23.5
scalar Network.dyn_peer[349] 	lookupTimeSig:mean 	2.82
scalar Network.dyn_peer[349] 	lookupStabilitySig:mean 	0.72074216380715
scalar Network.dyn_peer[349] 	lookupHopsSig:mean 	27.4
scalar Network.dyn_peer[350] 	lookupTimeSig:mean 	1.275
scalar Network.dyn_peer[350] 	lookupStabilitySig:mean 	0.4133116863668
scalar Network.dyn_peer[350] 	lookupHopsSig:mean 	12
scalar Network.dyn_peer[351] 	lookupTimeSig:mean 	3.5
scalar Network.dyn_peer[351] 	lookupStabilitySig:mean 	0.929172710826
scalar Network.dyn_peer[351] 	lookupHopsSig:mean 	34.166666666667
scalar Network.dyn_peer[352] 	lookupTimeSig:mean 	1.6
scalar Network.dyn_peer[352] 	lookupStabilitySig:mean 	0.91787460824708
scalar Network.dyn_peer[352] 	lookupHopsSig:mean 	15.125
scalar Network.dyn_peer[353] 	lookupTimeSig:mean 	5.2
scalar Network.dyn_peer[353] 	lookupStabilitySig:mean 	0.27671705683072
scalar Network.dyn_peer[353] 	lookupHopsSig:mean 	51.333333333333
scalar Network.dyn_peer[354] 	lookupTimeSig:mean 	1.6142857142857
scalar Network.dyn_peer[354] 	lookupStabilitySig:mean 	0.88524137171251
scalar Network.dyn_peer[354] 	lookupHopsSig:mean 	15.285714285714
scalar Network.dyn_peer[355] 	lookupTimeSig:mean 	1.2666666666667
scalar Network.dyn_peer[355] 	lookupStabilitySig:mean 	0.94835644149377
scalar Network.dyn_peer[355] 	lookupHopsSig:mean 	11.75
scalar Network.dyn_peer[356] 	lookupTimeSig:mean 	2.82
scalar Network.dyn_peer[356] 	lookupStabilitySig:mean 	0.90946768391877
scalar Network.dyn_peer[356] 	lookupHopsSig:mean 	27.4
scalar Network.dyn_peer[357] 	lookupTimeSig:mean 	0.725
scalar Network.dyn_peer[357] 	lookupStabilitySig:mean 	0.5210580714047
scalar Network.dyn_peer[357] 	lookupHopsSig:mean 	6.5
scalar Network.dyn_peer[358] 	lookupTimeSig:mean 	2.4666666666667
scalar Network.dyn_peer[358] 	lookupStabilitySig:mean 	0.83188058932622
scalar Network.dyn_peer[358] 	lookupHopsSig:mean 	24
scalar Network.dyn_peer[359] 	lookupTimeSig:mean 	1.38
scalar Network.dyn_peer[359] 	lookupStabilitySig:mean 	0.66742347553372
scalar Network.dyn_peer[359] 	lookupHopsSig:mean 	13
scalar Network.dyn_peer[360] 	lookupTimeSig:mean 	1.6142857142857
scalar Network.dyn_peer[360] 	lookupStabilitySig:mean 	0.75580579281918
scalar Network.dyn_peer[360] 	lookupHopsSig:mean 	15.285714285714
scalar Network.dyn_peer[361] 	lookupTimeSig:mean 	1.9444444444444
scalar Network.dyn_peer[361] 	lookupStabilitySig:mean 	0.94534967348187
scalar Network.dyn_peer[361] 	lookupHopsSig:mean 	18.555555555556
scalar Network.dyn_peer[362] 	lookupTimeSig:mean 	1.68125
scalar Network.dyn_peer[362] 	lookupStabilitySig:mean 	0.91579464726965
scalar Network.dyn_peer[362] 	lookupHopsSig:mean 	15.875
scalar Network.dyn_peer[363] 	lookupTimeSig:mean 	2.325
scalar Network.dyn_peer[363] 	lookupStabilitySig:mean 	0.73398129129782
scalar Network.dyn_peer[363] 	lookupHopsSig:mean 	22.5
scalar Network.dyn_peer[364] 	lookupTimeSig:mean 	2.86
scalar Network.dyn_peer[364] 	lookupStabilitySig:mean 	0.68924449831247
scalar Network.dyn_peer[364] 	lookupHopsSig:mean 	27.8
scalar Network.dyn_peer[365] 	lookupTimeSig:mean 	1.925
scalar Network.dyn_peer[365] 	lookupStabilitySig:mean 	0.89738540782128
scalar Network.dyn_peer[365] 	lookupHopsSig:mean 	18.375
scalar Network.dyn_peer[366] 	lookupTimeSig:mean 	3.6333333333333
scalar Network.dyn_peer[366] 	lookupStabilitySig:mean 	0.80188932704429
scalar Network.dyn_peer[366] 	lookupHopsSig:mean 	35.666666666667
scalar Network.dyn_peer[367] 	lookupTimeSig:mean 	2.3571428571429
scalar Network.dyn_peer[367] 	lookupStabilitySig:mean 	0.86368386926396
scalar Network.dyn_peer[367] 	lookupHopsSig:mean 	22.714285714286
scalar Network.dyn_peer[368] 	lookupTimeSig:mean 	3.0857142857143
scalar Network.dyn_peer[368] 	lookupStabilitySig:mean 	0.95186667822834
scalar Network.dyn_peer[368] 	lookupHopsSig:mean 	30
scalar Network.dyn_peer[369] 	lookupTimeSig:mean 	3.625
scalar Network.dyn_peer[369] 	lookupStabilitySig:mean 	0.44562367722392
scalar Network.dyn_peer[369] 	lookupHopsSig:mean 	35.5
scalar Network.dyn_peer[370] 	lookupTimeSig:mean 	1.55
scalar Network.dyn_peer[370] 	lookupStabilitySig:mean 	0.70163245685399
scalar Network.dyn_peer[370] 	lookupHopsSig:mean 	14.666666666667
scalar Network.dyn_peer[371] 	lookupTimeSig:mean 	3.3333333333333
scalar Network.dyn_peer[371] 	lookupStabilitySig:mean 	0.88523803527157
scalar Network.dyn_peer[371] 	lookupHopsSig:mean 	32.666666666667
scalar Network.dyn_peer[372] 	lookupTimeSig:mean 	1.5666666666667
scalar Network.dyn_peer[372] 	lookupStabilitySig:mean 	0.33213870041072
scalar Network.dyn_peer[372] 	lookupHopsSig:mean 	15
scalar Network.dyn_peer[373] 	lookupTimeSig:mean 	1.7777777777778
scalar Network.dyn_peer[373] 	lookupStabilitySig:mean 	0.8031479022983
scalar Network.dyn_peer[373] 	lookupHopsSig:mean 	16.888888888889
scalar Network.dyn_peer[374] 	lookupTimeSig:mean 	1.375
scalar Network.dyn_peer[374] 	lookupStabilitySig:mean 	0.45386902987957
scalar Network.dyn_peer[374] 	lookupHopsSig:mean 	13
scalar Network.dyn_peer[375] 	lookupTimeSig:mean 	2.05
scalar Network.dyn_peer[375] 	lookupStabilitySig:mean 	0.72616614680737
scalar Network.dyn_peer[375] 	lookupHopsSig:mean 	19.75
scalar Network.dyn_peer[376] 	lookupTimeSig:mean 	1.9875
scalar Network.dyn_peer[376] 	lookupStabilitySig:mean 	0.92749472364085
scalar Network.dyn_peer[376] 	lookupHopsSig:mean 	19
scalar Network.dyn_peer[377] 	lookupTimeSig:mean 	2.5166666666667
scalar Network.dyn_peer[377] 	lookupStabilitySig:mean 	0.94485119792322
scalar Network.dyn_peer[377] 	lookupHopsSig:mean 	24.333333333333
scalar Network.dyn_peer[378] 	lookupTimeSig:mean 	1.16
scalar Network.dyn_peer[378] 	lookupStabilitySig:mean 	0.64634615518153
scalar Network.dyn_peer[378] 	lookupHopsSig:mean 	10.8
scalar Network.dyn_peer[379] 	lookupTimeSig:mean 	2.2
scalar Network.dyn_peer[379] 	lookupStabilitySig:mean 	0.94907109938296
scalar Network.dyn_peer[379] 	lookupHopsSig:mean 	21.142857142857
scalar Network.dyn_peer[380] 	lookupTimeSig:mean 	1.94
scalar Network.dyn_peer[380] 	lookupStabilitySig:mean 	0.63958212397993
scalar Network.dyn_peer[380] 	lookupHopsSig:mean 	18.6
scalar Network.dyn_peer[381] 	lookupTimeSig:mean 	2.6
scalar Network.dyn_peer[381] 	lookupStabilitySig:mean 	0.59845001157373
scalar Network.dyn_peer[381] 	lookupHopsSig:mean 	25.25
scalar Network.dyn_peer[382] 	lookupTimeSig:mean 	2.2375
scalar Network.dyn_peer[382] 	lookupStabilitySig:mean 	0.92637071560603
scalar Network.dyn_peer[382] 	lookupHopsSig:mean 	21.5
scalar Network.dyn_peer[383] 	lookupTimeSig:mean 	1.1888888888889
scalar Network.dyn_peer[383] 	lookupStabilitySig:mean 	0.95539090409875
scalar Network.dyn_peer[383] 	lookupHopsSig:mean 	11
scalar Network.dyn_peer[384] 	lookupTimeSig:mean 	1.6428571428571
scalar Network.dyn_peer[384] 	lookupStabilitySig:mean 	0.70273300260305
scalar Network.dyn_peer[384] 	lookupHopsSig:mean 	15.571428571429
scalar Network.dyn_peer[385] 	lookupTimeSig:mean 	2.5166666666667
scalar Network.dyn_peer[385] 	lookupStabilitySig:mean 	0.84727371235689
scalar Network.dyn_peer[385] 	lookupHopsSig:mean 	24.333333333333
scalar Network.dyn_peer[386] 	lookupTimeSig:mean 	2.0428571428571
scalar Network.dyn_peer[386] 	lookupStabilitySig:mean 	0.94275690548654
scalar Network.dyn_peer[386] 	lookupHopsSig:mean 	19.571428571429
scalar Network.dyn_peer[387] 	lookupTimeSig:mean 	1.1166666666667
scalar Network.dyn_peer[387] 	lookupStabilitySig:mean 	0.77277594214926
scalar Network.dyn_peer[387] 	lookupHopsSig:mean 	10.333333333333
scalar Network.dyn_peer[388] 	lookupTimeSig:mean 	3.7
scalar Network.dyn_peer[388] 	lookupStabilitySig:mean 	0.81387362070382
scalar Network.dyn_peer[388] 	lookupHopsSig:mean 	36.5
scalar Network.dyn_peer[389] 	lookupTimeSig:mean 	3.7333333333333
scalar Network.dyn_peer[389] 	lookupStabilitySig:mean 	0.43937005102634
scalar Network.dyn_peer[389] 	lookupHopsSig:mean 	36.666666666667
scalar Network.dyn_peer[390] 	lookupTimeSig:mean 	3.1666666666667
scalar Network.dyn_peer[390] 	lookupStabilitySig:mean 	0.74325320869684
scalar Network.dyn_peer[390] 	lookupHopsSig:mean 	31
scalar Network.dyn_peer[391] 	lookupTimeSig:mean 	1.62
scalar Network.dyn_peer[391] 	lookupStabilitySig:mean 	0.65060178339481
scalar Network.dyn_peer[391] 	lookupHopsSig:mean 	15.4
scalar Network.dyn_peer[392] 	lookupTimeSig:mean 	2.4333333333333
scalar Network.dyn_peer[392] 	lookupStabilitySig:mean 	0.35772130390008
scalar Network.dyn_peer[392] 	lookupHopsSig:mean 	23.666666666667
scalar Network.dyn_peer[393] 	lookupTimeSig:mean 	2.4666666666667
scalar Network.dyn_peer[393] 	lookupStabilitySig:mean 	0.57427261521419
scalar Network.dyn_peer[393] 	lookupHopsSig:mean 	24
scalar Network.dyn_peer[394] 	lookupTimeSig:mean 	1.575
scalar Network.dyn_peer[394] 	lookupStabilitySig:mean 	0.86471255443757
scalar Network.dyn_peer[394] 	lookupHopsSig:mean 	14.875
scalar Network.dyn_peer[395] 	lookupTimeSig:mean 	2
scalar Network.dyn_peer[395] 	lookupStabilitySig:mean 	0.93350479125299
scalar Network.dyn_peer[395] 	lookupHopsSig:mean 	19.090909090909
scalar Network.dyn_peer[396] 	lookupTimeSig:mean 	1.4
scalar Network.dyn_peer[396] 	lookupStabilitySig:mean 	0.74011440505274
scalar Network.dyn_peer[396] 	lookupHopsSig:mean 	13.125
scalar Network.dyn_peer[397] 	lookupTimeSig:mean 	2.2272727272727
scalar Network.dyn_peer[397] 	lookupStabilitySig:mean 	0.94881463347172
scalar Network.dyn_peer[397] 	lookupHopsSig:mean 	21.363636363636
scalar Network.dyn_peer[398] 	lookupTimeSig:mean 	1.725
scalar Network.dyn_peer[398] 	lookupStabilitySig:mean 	0.87001494760625
scalar Network.dyn_peer[398] 	lookupHopsSig:mean 	16.375
scalar Network.dyn_peer[399] 	lookupTimeSig:mean 	1.7142857142857
scalar Network.dyn_peer[399] 	lookupStabilitySig:mean 	0.8699682730117
scalar Network.dyn_peer[399] 	lookupHopsSig:mean 	16.285714285714
scalar Network.dyn_peer[400] 	lookupTimeSig:mean 	2.6666666666667
scalar Network.dyn_peer[400] 	lookupStabilitySig:mean 	0.89138719532639
scalar Network.dyn_peer[400] 	lookupHopsSig:mean 	25.833333333333
scalar Network.dyn_peer[401] 	lookupTimeSig:mean 	1.7
scalar Network.dyn_peer[401] 	lookupStabilitySig:mean 	0.96312982578658
scalar Network.dyn_peer[401] 	lookupHopsSig:mean 	16.111111111111
scalar Network.dyn_peer[402] 	lookupTimeSig:mean 	1.9888888888889
scalar Network.dyn_peer[402] 	lookupStabilitySig:mean 	0.8284338629908
scalar Network.dyn_peer[402] 	lookupHopsSig:mean 	19
scalar Network.dyn_peer[403] 	lookupTimeSig:mean 	2.38
scalar Network.dyn_peer[403] 	lookupStabilitySig:mean 	0.62976378202438
scalar Network.dyn_peer[403] 	lookupHopsSig:mean 	23
scalar Network.dyn_peer[404] 	lookupTimeSig:mean 	2.86
scalar Network.dyn_peer[404] 	lookupStabilitySig:mean 	0.96394910980016
scalar Network.dyn_peer[404] 	lookupHopsSig:mean 	27.7
scalar Network.dyn_peer[405] 	lookupTimeSig:mean 	1.1
scalar Network.dyn_peer[405] 	lookupStabilitySig:mean 	0.55572148561478
scalar Network.dyn_peer[405] 	lookupHopsSig:mean 	10.2
scalar Network.dyn_peer[406] 	lookupTimeSig:mean 	2.8
scalar Network.dyn_peer[406] 	lookupStabilitySig:mean 	0.75366651453078
scalar Network.dyn_peer[406] 	lookupHopsSig:mean 	27.25
scalar Network.dyn_peer[407] 	lookupTimeSig:mean 	2.7571428571429
scalar Network.dyn_peer[407] 	lookupStabilitySig:mean 	0.95211260200345
scalar Network.dyn_peer[407] 	lookupHopsSig:mean 	26.714285714286
scalar Network.dyn_peer[408] 	lookupTimeSig:mean 	2.0166666666667
scalar Network.dyn_peer[408] 	lookupStabilitySig:mean 	0.83031281999623
scalar Network.dyn_peer[408] 	lookupHopsSig:mean 	19.333333333333
scalar Network.dyn_peer[409] 	lookupTimeSig:mean 	2.325
scalar Network.dyn_peer[409] 	lookupStabilitySig:mean 	0.87011863989756
scalar Network.dyn_peer[409] 	lookupHopsSig:mean 	22.5
scalar Network.dyn_peer[410] 	lookupTimeSig:mean 	2.1
scalar Network.dyn_peer[410] 	lookupStabilitySig:mean 	0.44106332957745
scalar Network.dyn_peer[410] 	lookupHopsSig:mean 	20.333333333333
scalar Network.dyn_peer[411] 	lookupTimeSig:mean 	2.425
scalar Network.dyn_peer[411] 	lookupStabilitySig:mean 	0.89833715627901
scalar Network.dyn_peer[411] 	lookupHopsSig:mean 	23.5
scalar Network.dyn_peer[412] 	lookupTimeSig:mean 	2.62
scalar Network.dyn_peer[412] 	lookupStabilitySig:mean 	0.79463144242764
scalar Network.dyn_peer[412] 	lookupHopsSig:mean 	25.4
scalar Network.dyn_peer[413] 	lookupTimeSig:mean 	1.45
scalar Network.dyn_peer[413] 	lookupStabilitySig:mean 	0.75410562753677
scalar Network.dyn_peer[413] 	lookupHopsSig:mean 	13.75
scalar Network.dyn_peer[414] 	lookupTimeSig:mean 	1.9
scalar Network.dyn_peer[414] 	lookupStabilitySig:mean 	0.87558447420597
scalar Network.dyn_peer[414] 	lookupHopsSig:mean 	18.2
scalar Network.dyn_peer[415] 	lookupTimeSig:mean 	1.9166666666667
scalar Network.dyn_peer[415] 	lookupStabilitySig:mean 	0.8180966284126
scalar Network.dyn_peer[415] 	lookupHopsSig:mean 	18.333333333333
scalar Network.dyn_peer[416] 	lookupTimeSig:mean 	4.0666666666667
scalar Network.dyn_peer[416] 	lookupStabilitySig:mean 	0.70736401279767
scalar Network.dyn_peer[416] 	lookupHopsSig:mean 	40
scalar Network.dyn_peer[417] 	lookupTimeSig:mean 	1.6
scalar Network.dyn_peer[417] 	lookupStabilitySig:mean 	0.71549724202071
scalar Network.dyn_peer[417] 	lookupHopsSig:mean 	15.142857142857
scalar Network.dyn_peer[418] 	lookupTimeSig:mean 	1.2357142857143
scalar Network.dyn_peer[418] 	lookupStabilitySig:mean 	0.86808439952854
scalar Network.dyn_peer[418] 	lookupHopsSig:mean 	11.428571428571
scalar Network.dyn_peer[419] 	lookupTimeSig:mean 	2.7142857142857
scalar Network.dyn_peer[419] 	lookupStabilitySig:mean 	0.94324934908322
scalar Network.dyn_peer[419] 	lookupHopsSig:mean 	26.285714285714
scalar Network.dyn_peer[420] 	lookupTimeSig:mean 	1.65
[...]
scalar Network.dyn_peer[895] 	lookupTimeSig:mean 	1.4333333333333
scalar Network.dyn_peer[895] 	lookupStabilitySig:mean 	0.74346283016105
scalar Network.dyn_peer[895] 	lookupHopsSig:mean 	13.5
scalar Network.dyn_peer[896] 	lookupTimeSig:mean 	2.0625
scalar Network.dyn_peer[896] 	lookupStabilitySig:mean 	0.91838276881026
scalar Network.dyn_peer[896] 	lookupHopsSig:mean 	19.75
scalar Network.dyn_peer[897] 	lookupTimeSig:mean 	1.7714285714286
scalar Network.dyn_peer[897] 	lookupStabilitySig:mean 	0.77059326427323
scalar Network.dyn_peer[897] 	lookupHopsSig:mean 	16.857142857143
scalar Network.dyn_peer[898] 	lookupTimeSig:mean 	1.5181818181818
scalar Network.dyn_peer[898] 	lookupStabilitySig:mean 	0.95823428060182
scalar Network.dyn_peer[898] 	lookupHopsSig:mean 	14.272727272727
scalar Network.dyn_peer[899] 	lookupTimeSig:mean 	3.0125
scalar Network.dyn_peer[899] 	lookupStabilitySig:mean 	0.94211838499177
scalar Network.dyn_peer[899] 	lookupHopsSig:mean 	29.25
scalar Network.dyn_peer[900] 	lookupTimeSig:mean 	1.2333333333333
scalar Network.dyn_peer[900] 	lookupStabilitySig:mean 	0.55091574788094
scalar Network.dyn_peer[900] 	lookupHopsSig:mean 	11.666666666667
scalar Network.dyn_peer[901] 	lookupTimeSig:mean 	1.6375
scalar Network.dyn_peer[901] 	lookupStabilitySig:mean 	0.94771010370459
scalar Network.dyn_peer[901] 	lookupHopsSig:mean 	15.5
scalar Network.dyn_peer[902] 	lookupTimeSig:mean 	5.3
scalar Network.dyn_peer[902] 	lookupStabilitySig:mean 	0.70289681851864
scalar Network.dyn_peer[902] 	lookupHopsSig:mean 	52.5
scalar Network.dyn_peer[903] 	lookupTimeSig:mean 	1.8
scalar Network.dyn_peer[903] 	lookupStabilitySig:mean 	0.8560338630341
scalar Network.dyn_peer[903] 	lookupHopsSig:mean 	17.25
scalar Network.dyn_peer[904] 	lookupTimeSig:mean 	3.3666666666667
scalar Network.dyn_peer[904] 	lookupStabilitySig:mean 	0.58988256255786
scalar Network.dyn_peer[904] 	lookupHopsSig:mean 	33
scalar Network.dyn_peer[905] 	lookupTimeSig:mean 	1.5285714285714
scalar Network.dyn_peer[905] 	lookupStabilitySig:mean 	0.93620601150074
scalar Network.dyn_peer[905] 	lookupHopsSig:mean 	14.428571428571
scalar Network.dyn_peer[906] 	lookupTimeSig:mean 	2.6
scalar Network.dyn_peer[906] 	lookupStabilitySig:mean 	0.4367308691144
scalar Network.dyn_peer[906] 	lookupHopsSig:mean 	25.5
scalar Network.dyn_peer[907] 	lookupTimeSig:mean 	1.975
scalar Network.dyn_peer[907] 	lookupStabilitySig:mean 	0.90360738150775
scalar Network.dyn_peer[907] 	lookupHopsSig:mean 	19
scalar Network.dyn_peer[908] 	lookupTimeSig:mean 	4.1
scalar Network.dyn_peer[908] 	lookupStabilitySig:mean 	0.82972200959921
scalar Network.dyn_peer[908] 	lookupHopsSig:mean 	40.333333333333
scalar Network.dyn_peer[909] 	lookupTimeSig:mean 	3.05
scalar Network.dyn_peer[909] 	lookupStabilitySig:mean 	0.6763513609767
scalar Network.dyn_peer[909] 	lookupHopsSig:mean 	30
scalar Network.dyn_peer[910] 	lookupTimeSig:mean 	1.9
scalar Network.dyn_peer[910] 	lookupStabilitySig:mean 	0.89115782082081
scalar Network.dyn_peer[910] 	lookupHopsSig:mean 	18.25
scalar Network.dyn_peer[911] 	lookupTimeSig:mean 	3.1666666666667
scalar Network.dyn_peer[911] 	lookupStabilitySig:mean 	0.89382085110992
scalar Network.dyn_peer[911] 	lookupHopsSig:mean 	31
scalar Network.dyn_peer[912] 	lookupTimeSig:mean 	0.9
scalar Network.dyn_peer[912] 	lookupStabilitySig:mean 	0.78788983342903
scalar Network.dyn_peer[912] 	lookupHopsSig:mean 	8.1428571428571
scalar Network.dyn_peer[913] 	lookupTimeSig:mean 	2.26
scalar Network.dyn_peer[913] 	lookupStabilitySig:mean 	0.67632551044226
scalar Network.dyn_peer[913] 	lookupHopsSig:mean 	21.8
scalar Network.dyn_peer[914] 	lookupTimeSig:mean 	1.6125
scalar Network.dyn_peer[914] 	lookupStabilitySig:mean 	0.84240492153913
scalar Network.dyn_peer[914] 	lookupHopsSig:mean 	15.25
scalar Network.dyn_peer[915] 	lookupTimeSig:mean 	1.8
scalar Network.dyn_peer[915] 	lookupStabilitySig:mean 	0.90448482437059
scalar Network.dyn_peer[915] 	lookupHopsSig:mean 	17.2
scalar Network.dyn_peer[916] 	lookupTimeSig:mean 	2.8333333333333
scalar Network.dyn_peer[916] 	lookupStabilitySig:mean 	0.65899440397819
scalar Network.dyn_peer[916] 	lookupHopsSig:mean 	27.666666666667
scalar Network.dyn_peer[917] 	lookupTimeSig:mean 	1.3833333333333
scalar Network.dyn_peer[917] 	lookupStabilitySig:mean 	0.8933565383777
scalar Network.dyn_peer[917] 	lookupHopsSig:mean 	13
scalar Network.dyn_peer[918] 	lookupTimeSig:mean 	1.9
scalar Network.dyn_peer[918] 	lookupStabilitySig:mean 	0.78444369616253
scalar Network.dyn_peer[918] 	lookupHopsSig:mean 	18.142857142857
scalar Network.dyn_peer[919] 	lookupTimeSig:mean 	2.22
scalar Network.dyn_peer[919] 	lookupStabilitySig:mean 	0.89705075472593
scalar Network.dyn_peer[919] 	lookupHopsSig:mean 	21.4
scalar Network.dyn_peer[920] 	lookupTimeSig:mean 	2.525
scalar Network.dyn_peer[920] 	lookupStabilitySig:mean 	0.87440030090511
scalar Network.dyn_peer[920] 	lookupHopsSig:mean 	24.5
scalar Network.dyn_peer[921] 	lookupTimeSig:mean 	2.0571428571429
scalar Network.dyn_peer[921] 	lookupStabilitySig:mean 	0.94200232412134
scalar Network.dyn_peer[921] 	lookupHopsSig:mean 	19.714285714286
scalar Network.dyn_peer[922] 	lookupTimeSig:mean 	1.72
scalar Network.dyn_peer[922] 	lookupStabilitySig:mean 	0.96020262325183
scalar Network.dyn_peer[922] 	lookupHopsSig:mean 	16.3
scalar Network.dyn_peer[923] 	lookupTimeSig:mean 	2.68
scalar Network.dyn_peer[923] 	lookupStabilitySig:mean 	0.74306064173579
scalar Network.dyn_peer[923] 	lookupHopsSig:mean 	26
scalar Network.dyn_peer[924] 	lookupTimeSig:mean 	1.7875
scalar Network.dyn_peer[924] 	lookupStabilitySig:mean 	0.94996609399095
scalar Network.dyn_peer[924] 	lookupHopsSig:mean 	17
scalar Network.dyn_peer[925] 	lookupTimeSig:mean 	2.425
scalar Network.dyn_peer[925] 	lookupStabilitySig:mean 	0.93732312554494
scalar Network.dyn_peer[925] 	lookupHopsSig:mean 	23.375
scalar Network.dyn_peer[926] 	lookupTimeSig:mean 	6.15
scalar Network.dyn_peer[926] 	lookupStabilitySig:mean 	0.84259169176221
scalar Network.dyn_peer[926] 	lookupHopsSig:mean 	61
scalar Network.dyn_peer[927] 	lookupTimeSig:mean 	1.4166666666667
scalar Network.dyn_peer[927] 	lookupStabilitySig:mean 	0.78339305147529
scalar Network.dyn_peer[927] 	lookupHopsSig:mean 	13.333333333333
scalar Network.dyn_peer[928] 	lookupTimeSig:mean 	2.52
scalar Network.dyn_peer[928] 	lookupStabilitySig:mean 	0.74583575762808
scalar Network.dyn_peer[928] 	lookupHopsSig:mean 	24.4
scalar Network.dyn_peer[929] 	lookupTimeSig:mean 	2.775
scalar Network.dyn_peer[929] 	lookupStabilitySig:mean 	0.95487076276913
scalar Network.dyn_peer[929] 	lookupHopsSig:mean 	26.875
scalar Network.dyn_peer[930] 	lookupTimeSig:mean 	2.1333333333333
scalar Network.dyn_peer[930] 	lookupStabilitySig:mean 	0.72512582316995
scalar Network.dyn_peer[930] 	lookupHopsSig:mean 	20.666666666667
scalar Network.dyn_peer[931] 	lookupTimeSig:mean 	1.95
scalar Network.dyn_peer[931] 	lookupStabilitySig:mean 	0.96201036397057
scalar Network.dyn_peer[931] 	lookupHopsSig:mean 	18.583333333333
scalar Network.dyn_peer[932] 	lookupTimeSig:mean 	1.9857142857143
scalar Network.dyn_peer[932] 	lookupStabilitySig:mean 	0.93848603804197
scalar Network.dyn_peer[932] 	lookupHopsSig:mean 	19
scalar Network.dyn_peer[933] 	lookupTimeSig:mean 	2.175
scalar Network.dyn_peer[933] 	lookupStabilitySig:mean 	0.58503780141473
scalar Network.dyn_peer[933] 	lookupHopsSig:mean 	21
scalar Network.dyn_peer[934] 	lookupTimeSig:mean 	1.9
scalar Network.dyn_peer[934] 	lookupStabilitySig:mean 	0.57828283309937
scalar Network.dyn_peer[934] 	lookupHopsSig:mean 	18.5
scalar Network.dyn_peer[935] 	lookupTimeSig:mean 	2.4875
scalar Network.dyn_peer[935] 	lookupStabilitySig:mean 	0.94311873987317
scalar Network.dyn_peer[935] 	lookupHopsSig:mean 	24
scalar Network.dyn_peer[936] 	lookupTimeSig:mean 	1.36
scalar Network.dyn_peer[936] 	lookupStabilitySig:mean 	0.7579196959734
scalar Network.dyn_peer[936] 	lookupHopsSig:mean 	12.8
scalar Network.dyn_peer[937] 	lookupTimeSig:mean 	1.6153846153846
scalar Network.dyn_peer[937] 	lookupStabilitySig:mean 	0.96714809793048
scalar Network.dyn_peer[937] 	lookupHopsSig:mean 	15.230769230769
scalar Network.dyn_peer[938] 	lookupTimeSig:mean 	2.1
scalar Network.dyn_peer[938] 	lookupStabilitySig:mean 	0.94695985654835
scalar Network.dyn_peer[938] 	lookupHopsSig:mean 	20.125
scalar Network.dyn_peer[939] 	lookupTimeSig:mean 	1.2454545454545
scalar Network.dyn_peer[939] 	lookupStabilitySig:mean 	0.87326667131856
scalar Network.dyn_peer[939] 	lookupHopsSig:mean 	11.545454545455
scalar Network.dyn_peer[940] 	lookupTimeSig:mean 	2.5714285714286
scalar Network.dyn_peer[940] 	lookupStabilitySig:mean 	0.95906824811495
scalar Network.dyn_peer[940] 	lookupHopsSig:mean 	24.857142857143
scalar Network.dyn_peer[941] 	lookupTimeSig:mean 	2.6142857142857
scalar Network.dyn_peer[941] 	lookupStabilitySig:mean 	0.75303373911551
scalar Network.dyn_peer[941] 	lookupHopsSig:mean 	25.285714285714
scalar Network.dyn_peer[942] 	lookupTimeSig:mean 	1.86
scalar Network.dyn_peer[942] 	lookupStabilitySig:mean 	0.87317817918956
scalar Network.dyn_peer[942] 	lookupHopsSig:mean 	17.8
scalar Network.dyn_peer[943] 	lookupTimeSig:mean 	3.6625
scalar Network.dyn_peer[943] 	lookupStabilitySig:mean 	0.94791731284931
scalar Network.dyn_peer[943] 	lookupHopsSig:mean 	35.75
scalar Network.dyn_peer[944] 	lookupTimeSig:mean 	1.5285714285714
scalar Network.dyn_peer[944] 	lookupStabilitySig:mean 	0.78419528555657
scalar Network.dyn_peer[944] 	lookupHopsSig:mean 	14.428571428571
scalar Network.dyn_peer[945] 	lookupTimeSig:mean 	3.2
scalar Network.dyn_peer[945] 	lookupStabilitySig:mean 	0.77143384516239
scalar Network.dyn_peer[945] 	lookupHopsSig:mean 	31.5
scalar Network.dyn_peer[946] 	lookupTimeSig:mean 	2.1333333333333
scalar Network.dyn_peer[946] 	lookupStabilitySig:mean 	0.7686403443416
scalar Network.dyn_peer[946] 	lookupHopsSig:mean 	20.666666666667
scalar Network.dyn_peer[947] 	lookupTimeSig:mean 	1.2666666666667
scalar Network.dyn_peer[947] 	lookupStabilitySig:mean 	0.5707883288463
scalar Network.dyn_peer[947] 	lookupHopsSig:mean 	12
scalar Network.dyn_peer[948] 	lookupTimeSig:mean 	2.3428571428571
scalar Network.dyn_peer[948] 	lookupStabilitySig:mean 	0.94294927455485
scalar Network.dyn_peer[948] 	lookupHopsSig:mean 	22.571428571429
scalar Network.dyn_peer[949] 	lookupTimeSig:mean 	1.2181818181818
scalar Network.dyn_peer[949] 	lookupStabilitySig:mean 	0.94380336115137
scalar Network.dyn_peer[949] 	lookupHopsSig:mean 	11.272727272727
scalar Network.dyn_peer[950] 	lookupTimeSig:mean 	1.75
scalar Network.dyn_peer[950] 	lookupStabilitySig:mean 	0.39880952239037
scalar Network.dyn_peer[950] 	lookupHopsSig:mean 	17
scalar Network.dyn_peer[951] 	lookupTimeSig:mean 	2.725
scalar Network.dyn_peer[951] 	lookupStabilitySig:mean 	0.75914836861193
scalar Network.dyn_peer[951] 	lookupHopsSig:mean 	26.5
scalar Network.dyn_peer[952] 	lookupTimeSig:mean 	1.5
scalar Network.dyn_peer[952] 	lookupStabilitySig:mean 	0.92997471750714
scalar Network.dyn_peer[952] 	lookupHopsSig:mean 	14.1
scalar Network.dyn_peer[953] 	lookupTimeSig:mean 	1.475
scalar Network.dyn_peer[953] 	lookupStabilitySig:mean 	0.88079031463712
scalar Network.dyn_peer[953] 	lookupHopsSig:mean 	13.875
scalar Network.dyn_peer[954] 	lookupTimeSig:mean 	1.7142857142857
scalar Network.dyn_peer[954] 	lookupStabilitySig:mean 	0.85868003405631
scalar Network.dyn_peer[954] 	lookupHopsSig:mean 	16.285714285714
scalar Network.dyn_peer[955] 	lookupTimeSig:mean 	1.9230769230769
scalar Network.dyn_peer[955] 	lookupStabilitySig:mean 	0.95720727906491
scalar Network.dyn_peer[955] 	lookupHopsSig:mean 	18.307692307692
scalar Network.dyn_peer[956] 	lookupTimeSig:mean 	3.0333333333333
scalar Network.dyn_peer[956] 	lookupStabilitySig:mean 	0.92115840812524
scalar Network.dyn_peer[956] 	lookupHopsSig:mean 	29.5
scalar Network.dyn_peer[957] 	lookupTimeSig:mean 	0.83333333333333
scalar Network.dyn_peer[957] 	lookupStabilitySig:mean 	0.56453916927179
scalar Network.dyn_peer[957] 	lookupHopsSig:mean 	7.6666666666667
scalar Network.dyn_peer[958] 	lookupTimeSig:mean 	1.575
scalar Network.dyn_peer[958] 	lookupStabilitySig:mean 	0.69449229491875
scalar Network.dyn_peer[958] 	lookupHopsSig:mean 	15
scalar Network.dyn_peer[959] 	lookupTimeSig:mean 	2.2642857142857
scalar Network.dyn_peer[959] 	lookupStabilitySig:mean 	0.9609036159236
scalar Network.dyn_peer[959] 	lookupHopsSig:mean 	21.714285714286
scalar Network.dyn_peer[960] 	lookupTimeSig:mean 	1.9
scalar Network.dyn_peer[960] 	lookupStabilitySig:mean 	0.71150692459196
scalar Network.dyn_peer[960] 	lookupHopsSig:mean 	18.25
scalar Network.dyn_peer[961] 	lookupTimeSig:mean 	2.36
scalar Network.dyn_peer[961] 	lookupStabilitySig:mean 	0.91848371997476
scalar Network.dyn_peer[961] 	lookupHopsSig:mean 	22.8
scalar Network.dyn_peer[962] 	lookupTimeSig:mean 	2.9333333333333
scalar Network.dyn_peer[962] 	lookupStabilitySig:mean 	0.8841732715567
scalar Network.dyn_peer[962] 	lookupHopsSig:mean 	28.666666666667
scalar Network.dyn_peer[963] 	lookupTimeSig:mean 	1.7722222222222
scalar Network.dyn_peer[963] 	lookupStabilitySig:mean 	0.97041294987624
scalar Network.dyn_peer[963] 	lookupHopsSig:mean 	16.777777777778
scalar Network.dyn_peer[964] 	lookupTimeSig:mean 	1.825
scalar Network.dyn_peer[964] 	lookupStabilitySig:mean 	0.90599435940385
scalar Network.dyn_peer[964] 	lookupHopsSig:mean 	17.5
scalar Network.dyn_peer[965] 	lookupTimeSig:mean 	2.34
scalar Network.dyn_peer[965] 	lookupStabilitySig:mean 	0.89506512731314
scalar Network.dyn_peer[965] 	lookupHopsSig:mean 	22.6
scalar Network.dyn_peer[966] 	lookupTimeSig:mean 	2.1875
scalar Network.dyn_peer[966] 	lookupStabilitySig:mean 	0.94358241301961
scalar Network.dyn_peer[966] 	lookupHopsSig:mean 	21
scalar Network.dyn_peer[967] 	lookupTimeSig:mean 	1.8666666666667
scalar Network.dyn_peer[967] 	lookupStabilitySig:mean 	0.86689061764628
scalar Network.dyn_peer[967] 	lookupHopsSig:mean 	18
scalar Network.dyn_peer[968] 	lookupTimeSig:mean 	2.2
scalar Network.dyn_peer[968] 	lookupStabilitySig:mean 	0.80462963320315
scalar Network.dyn_peer[968] 	lookupHopsSig:mean 	21.5
scalar Network.dyn_peer[969] 	lookupTimeSig:mean 	3.0166666666667
scalar Network.dyn_peer[969] 	lookupStabilitySig:mean 	0.93458520186444
scalar Network.dyn_peer[969] 	lookupHopsSig:mean 	29.333333333333
scalar Network.dyn_peer[970] 	lookupTimeSig:mean 	1.2625
scalar Network.dyn_peer[970] 	lookupStabilitySig:mean 	0.8370414765086
scalar Network.dyn_peer[970] 	lookupHopsSig:mean 	11.75
scalar Network.dyn_peer[971] 	lookupTimeSig:mean 	4.6666666666667
scalar Network.dyn_peer[971] 	lookupStabilitySig:mean 	0.9118331912905
scalar Network.dyn_peer[971] 	lookupHopsSig:mean 	46
scalar Network.dyn_peer[972] 	lookupTimeSig:mean 	1.42
scalar Network.dyn_peer[972] 	lookupStabilitySig:mean 	0.82810118198395
scalar Network.dyn_peer[972] 	lookupHopsSig:mean 	13.4
scalar Network.dyn_peer[973] 	lookupTimeSig:mean 	2.7
scalar Network.dyn_peer[973] 	lookupStabilitySig:mean 	0.9202236972217
scalar Network.dyn_peer[973] 	lookupHopsSig:mean 	26.142857142857
scalar Network.dyn_peer[974] 	lookupTimeSig:mean 	1.575
scalar Network.dyn_peer[974] 	lookupStabilitySig:mean 	0.66636215429753
scalar Network.dyn_peer[974] 	lookupHopsSig:mean 	15
scalar Network.dyn_peer[975] 	lookupTimeSig:mean 	2.125
scalar Network.dyn_peer[975] 	lookupStabilitySig:mean 	0.88689099345356
scalar Network.dyn_peer[975] 	lookupHopsSig:mean 	20.5
scalar Network.dyn_peer[976] 	lookupTimeSig:mean 	1.075
scalar Network.dyn_peer[976] 	lookupStabilitySig:mean 	0.91343702480663
scalar Network.dyn_peer[976] 	lookupHopsSig:mean 	9.875
scalar Network.dyn_peer[977] 	lookupTimeSig:mean 	2.3
scalar Network.dyn_peer[977] 	lookupStabilitySig:mean 	0.88094492815435
scalar Network.dyn_peer[977] 	lookupHopsSig:mean 	22.25
scalar Network.dyn_peer[978] 	lookupTimeSig:mean 	1.58
scalar Network.dyn_peer[978] 	lookupStabilitySig:mean 	0.88667287938297
scalar Network.dyn_peer[978] 	lookupHopsSig:mean 	15
scalar Network.dyn_peer[979] 	lookupTimeSig:mean 	2.68
scalar Network.dyn_peer[979] 	lookupStabilitySig:mean 	0.91745095662773
scalar Network.dyn_peer[979] 	lookupHopsSig:mean 	26
scalar Network.dyn_peer[980] 	lookupTimeSig:mean 	1.9125
scalar Network.dyn_peer[980] 	lookupStabilitySig:mean 	0.93484552751761
scalar Network.dyn_peer[980] 	lookupHopsSig:mean 	18.25
scalar Network.dyn_peer[981] 	lookupTimeSig:mean 	2.6
scalar Network.dyn_peer[981] 	lookupStabilitySig:mean 	0.95316694157996
scalar Network.dyn_peer[981] 	lookupHopsSig:mean 	25.142857142857
scalar Network.dyn_peer[982] 	lookupTimeSig:mean 	2.575
scalar Network.dyn_peer[982] 	lookupStabilitySig:mean 	0.90211871080101
scalar Network.dyn_peer[982] 	lookupHopsSig:mean 	25
scalar Network.dyn_peer[983] 	lookupTimeSig:mean 	2.9333333333333
scalar Network.dyn_peer[983] 	lookupStabilitySig:mean 	0.86792151133219
scalar Network.dyn_peer[983] 	lookupHopsSig:mean 	28.666666666667
scalar Network.dyn_peer[984] 	lookupTimeSig:mean 	1.55
scalar Network.dyn_peer[984] 	lookupStabilitySig:mean 	0.71152869518846
scalar Network.dyn_peer[984] 	lookupHopsSig:mean 	14.75
scalar Network.dyn_peer[985] 	lookupTimeSig:mean 	2.5
scalar Network.dyn_peer[985] 	lookupStabilitySig:mean 	0.95324468969678
scalar Network.dyn_peer[985] 	lookupHopsSig:mean 	24.166666666667
scalar Network.dyn_peer[986] 	lookupTimeSig:mean 	1.8
scalar Network.dyn_peer[986] 	lookupStabilitySig:mean 	0.84543252810836
scalar Network.dyn_peer[986] 	lookupHopsSig:mean 	17.2
scalar Network.dyn_peer[987] 	lookupTimeSig:mean 	2.3
scalar Network.dyn_peer[987] 	lookupStabilitySig:mean 	0.95326957292855
scalar Network.dyn_peer[987] 	lookupHopsSig:mean 	22.142857142857
scalar Network.dyn_peer[988] 	lookupTimeSig:mean 	1.6714285714286
scalar Network.dyn_peer[988] 	lookupStabilitySig:mean 	0.83129652616169
scalar Network.dyn_peer[988] 	lookupHopsSig:mean 	15.857142857143
scalar Network.dyn_peer[989] 	lookupTimeSig:mean 	1.2777777777778
scalar Network.dyn_peer[989] 	lookupStabilitySig:mean 	0.85418703510529
scalar Network.dyn_peer[989] 	lookupHopsSig:mean 	11.888888888889
scalar Network.dyn_peer[990] 	lookupTimeSig:mean 	1.9428571428571
scalar Network.dyn_peer[990] 	lookupStabilitySig:mean 	0.85386555429016
scalar Network.dyn_peer[990] 	lookupHopsSig:mean 	18.571428571429
scalar Network.dyn_peer[991] 	lookupTimeSig:mean 	3.225
scalar Network.dyn_peer[991] 	lookupStabilitySig:mean 	0.82811191957444
scalar Network.dyn_peer[991] 	lookupHopsSig:mean 	31.5
scalar Network.dyn_peer[992] 	lookupTimeSig:mean 	2.125
scalar Network.dyn_peer[992] 	lookupStabilitySig:mean 	0.69461516663432
scalar Network.dyn_peer[992] 	lookupHopsSig:mean 	20.5
scalar Network.dyn_peer[993] 	lookupTimeSig:mean 	1.3555555555556
scalar Network.dyn_peer[993] 	lookupStabilitySig:mean 	0.92630017812674
scalar Network.dyn_peer[993] 	lookupHopsSig:mean 	12.666666666667
scalar Network.dyn_peer[994] 	lookupTimeSig:mean 	1.9
scalar Network.dyn_peer[994] 	lookupStabilitySig:mean 	0.82014657091349
scalar Network.dyn_peer[994] 	lookupHopsSig:mean 	18.25
scalar Network.dyn_peer[995] 	lookupTimeSig:mean 	1.14
scalar Network.dyn_peer[995] 	lookupStabilitySig:mean 	0.74436236545444
scalar Network.dyn_peer[995] 	lookupHopsSig:mean 	10.6
scalar Network.dyn_peer[996] 	lookupTimeSig:mean 	1.825
scalar Network.dyn_peer[996] 	lookupStabilitySig:mean 	0.91258742590435
scalar Network.dyn_peer[996] 	lookupHopsSig:mean 	17.375
scalar Network.dyn_peer[997] 	lookupTimeSig:mean 	1.2
scalar Network.dyn_peer[997] 	lookupStabilitySig:mean 	0.45959596335888
scalar Network.dyn_peer[997] 	lookupHopsSig:mean 	11.5
scalar Network.dyn_peer[998] 	lookupTimeSig:mean 	2.9333333333333
scalar Network.dyn_peer[998] 	lookupStabilitySig:mean 	0.85045012303938
scalar Network.dyn_peer[998] 	lookupHopsSig:mean 	28.666666666667
scalar Network.dyn_peer[999] 	lookupTimeSig:mean 	1.8928571428571
scalar Network.dyn_peer[999] 	lookupStabilitySig:mean 	0.9675773497937
scalar Network.dyn_peer[999] 	lookupHopsSig:mean 	18
scalar Network.churner 	inGoingSizeSig:mean 	499.000999001
