version 2
run Stability2-312-20130526-00:54:53-26640
attr configname Stability2
attr datetime 20130526-00:54:53
attr experiment Stability2
attr inifile omnetpp.ini
attr iterationvars $0=1000
attr iterationvars2 "$0=1000, $repetition=12"
attr measurement $0=1000
attr network Network
attr processid 26640
attr repetition 12
attr replication #12
attr resultdir results
attr runnumber 312
attr seedset 312

scalar Network.dyn_peer[0] 	lookupTimeSig:mean 	2.14
scalar Network.dyn_peer[0] 	lookupStabilitySig:mean 	0.5378896702081
scalar Network.dyn_peer[0] 	lookupHopsSig:mean 	20.6
scalar Network.dyn_peer[1] 	lookupTimeSig:mean 	1.0333333333333
scalar Network.dyn_peer[1] 	lookupStabilitySig:mean 	-0.088888913393021
scalar Network.dyn_peer[1] 	lookupHopsSig:mean 	9.6666666666667
scalar Network.dyn_peer[2] 	lookupTimeSig:mean 	1.4333333333333
scalar Network.dyn_peer[2] 	lookupStabilitySig:mean 	0.70707774369253
scalar Network.dyn_peer[2] 	lookupHopsSig:mean 	13.444444444444
scalar Network.dyn_peer[3] 	lookupTimeSig:mean 	1.2
scalar Network.dyn_peer[3] 	lookupStabilitySig:mean 	0.10682010402282
scalar Network.dyn_peer[3] 	lookupHopsSig:mean 	11.333333333333
scalar Network.dyn_peer[4] 	lookupTimeSig:mean 	2.025
scalar Network.dyn_peer[4] 	lookupStabilitySig:mean 	0.90027414867654
scalar Network.dyn_peer[4] 	lookupHopsSig:mean 	19.375
scalar Network.dyn_peer[5] 	lookupTimeSig:mean 	1.7333333333333
scalar Network.dyn_peer[5] 	lookupStabilitySig:mean 	0.32852850854397
scalar Network.dyn_peer[5] 	lookupHopsSig:mean 	16.666666666667
scalar Network.dyn_peer[6] 	lookupTimeSig:mean 	1.4333333333333
scalar Network.dyn_peer[6] 	lookupStabilitySig:mean 	0.49989868576328
scalar Network.dyn_peer[6] 	lookupHopsSig:mean 	13.5
scalar Network.dyn_peer[7] 	lookupTimeSig:mean 	1.5583333333333
scalar Network.dyn_peer[7] 	lookupStabilitySig:mean 	0.80110437438513
scalar Network.dyn_peer[7] 	lookupHopsSig:mean 	14.666666666667
scalar Network.dyn_peer[8] 	lookupTimeSig:mean 	1.6714285714286
scalar Network.dyn_peer[8] 	lookupStabilitySig:mean 	0.59775129918541
scalar Network.dyn_peer[8] 	lookupHopsSig:mean 	15.857142857143
scalar Network.dyn_peer[9] 	lookupTimeSig:mean 	2.6
scalar Network.dyn_peer[9] 	lookupStabilitySig:mean 	0.78436937509105
scalar Network.dyn_peer[9] 	lookupHopsSig:mean 	25.2
scalar Network.dyn_peer[10] 	lookupTimeSig:mean 	1.3
scalar Network.dyn_peer[10] 	lookupStabilitySig:mean 	0.22532736323774
scalar Network.dyn_peer[10] 	lookupHopsSig:mean 	12.25
scalar Network.dyn_peer[11] 	lookupTimeSig:mean 	2.1333333333333
scalar Network.dyn_peer[11] 	lookupStabilitySig:mean 	0.49759684254726
scalar Network.dyn_peer[11] 	lookupHopsSig:mean 	20.5
scalar Network.dyn_peer[12] 	lookupTimeSig:mean 	2.3
scalar Network.dyn_peer[12] 	lookupStabilitySig:mean 	0.55053589642048
scalar Network.dyn_peer[12] 	lookupHopsSig:mean 	22.2
scalar Network.dyn_peer[13] 	lookupTimeSig:mean 	1.18
scalar Network.dyn_peer[13] 	lookupStabilitySig:mean 	0.38830169215798
scalar Network.dyn_peer[13] 	lookupHopsSig:mean 	11
scalar Network.dyn_peer[14] 	lookupTimeSig:mean 	2.05
scalar Network.dyn_peer[14] 	lookupStabilitySig:mean 	0.7141103107715
scalar Network.dyn_peer[14] 	lookupHopsSig:mean 	19.666666666667
scalar Network.dyn_peer[15] 	lookupTimeSig:mean 	1.4625
scalar Network.dyn_peer[15] 	lookupStabilitySig:mean 	0.62572512519546
scalar Network.dyn_peer[15] 	lookupHopsSig:mean 	13.75
scalar Network.dyn_peer[16] 	lookupTimeSig:mean 	1.38
scalar Network.dyn_peer[16] 	lookupStabilitySig:mean 	0.35711539499462
scalar Network.dyn_peer[16] 	lookupHopsSig:mean 	13
scalar Network.dyn_peer[17] 	lookupTimeSig:mean 	1.15
scalar Network.dyn_peer[17] 	lookupStabilitySig:mean 	0.69171508797444
scalar Network.dyn_peer[17] 	lookupHopsSig:mean 	10.583333333333
scalar Network.dyn_peer[18] 	lookupTimeSig:mean 	1.5142857142857
scalar Network.dyn_peer[18] 	lookupStabilitySig:mean 	0.51719839658056
scalar Network.dyn_peer[18] 	lookupHopsSig:mean 	14.285714285714
scalar Network.dyn_peer[19] 	lookupTimeSig:mean 	1.925
scalar Network.dyn_peer[19] 	lookupStabilitySig:mean 	0.86577513697557
scalar Network.dyn_peer[19] 	lookupHopsSig:mean 	18.375
scalar Network.dyn_peer[20] 	lookupTimeSig:mean 	1.4
scalar Network.dyn_peer[20] 	lookupStabilitySig:mean 	0.18298869393766
scalar Network.dyn_peer[20] 	lookupHopsSig:mean 	13.25
scalar Network.dyn_peer[21] 	lookupTimeSig:mean 	2.0166666666667
scalar Network.dyn_peer[21] 	lookupStabilitySig:mean 	0.58724783547223
scalar Network.dyn_peer[21] 	lookupHopsSig:mean 	19.333333333333
scalar Network.dyn_peer[22] 	lookupTimeSig:mean 	2.9333333333333
scalar Network.dyn_peer[22] 	lookupStabilitySig:mean 	0.66402728358905
scalar Network.dyn_peer[22] 	lookupHopsSig:mean 	28.666666666667
scalar Network.dyn_peer[23] 	lookupTimeSig:mean 	2.2714285714286
scalar Network.dyn_peer[23] 	lookupStabilitySig:mean 	0.91521047215377
scalar Network.dyn_peer[23] 	lookupHopsSig:mean 	21.857142857143
scalar Network.dyn_peer[24] 	lookupTimeSig:mean 	1.5666666666667
scalar Network.dyn_peer[24] 	lookupStabilitySig:mean 	0.47757966071367
scalar Network.dyn_peer[24] 	lookupHopsSig:mean 	14.833333333333
scalar Network.dyn_peer[25] 	lookupTimeSig:mean 	1.5
scalar Network.dyn_peer[25] 	lookupStabilitySig:mean 	0.40066613256931
scalar Network.dyn_peer[25] 	lookupHopsSig:mean 	14.166666666667
scalar Network.dyn_peer[26] 	lookupTimeSig:mean 	1.3
scalar Network.dyn_peer[26] 	lookupStabilitySig:mean 	0.75690144380288
scalar Network.dyn_peer[26] 	lookupHopsSig:mean 	12.142857142857
scalar Network.dyn_peer[27] 	lookupTimeSig:mean 	1.5
scalar Network.dyn_peer[27] 	lookupStabilitySig:mean 	0.70291728215913
scalar Network.dyn_peer[27] 	lookupHopsSig:mean 	14.166666666667
scalar Network.dyn_peer[28] 	lookupTimeSig:mean 	1.28
scalar Network.dyn_peer[28] 	lookupStabilitySig:mean 	0.30461390540004
scalar Network.dyn_peer[28] 	lookupHopsSig:mean 	12
scalar Network.dyn_peer[29] 	lookupTimeSig:mean 	1.0666666666667
scalar Network.dyn_peer[29] 	lookupStabilitySig:mean 	0.23112129792571
scalar Network.dyn_peer[29] 	lookupHopsSig:mean 	10
scalar Network.dyn_peer[30] 	lookupTimeSig:mean 	1.225
scalar Network.dyn_peer[30] 	lookupStabilitySig:mean 	0.32813619449735
scalar Network.dyn_peer[30] 	lookupHopsSig:mean 	11.5
scalar Network.dyn_peer[31] 	lookupTimeSig:mean 	2.5666666666667
scalar Network.dyn_peer[31] 	lookupStabilitySig:mean 	0.92563798464835
scalar Network.dyn_peer[31] 	lookupHopsSig:mean 	24.833333333333
scalar Network.dyn_peer[32] 	lookupTimeSig:mean 	1.575
scalar Network.dyn_peer[32] 	lookupStabilitySig:mean 	0.30860015377402
scalar Network.dyn_peer[32] 	lookupHopsSig:mean 	15
scalar Network.dyn_peer[33] 	lookupTimeSig:mean 	1.7142857142857
scalar Network.dyn_peer[33] 	lookupStabilitySig:mean 	0.60503591863172
scalar Network.dyn_peer[33] 	lookupHopsSig:mean 	16.285714285714
scalar Network.dyn_peer[34] 	lookupTimeSig:mean 	2.0666666666667
scalar Network.dyn_peer[34] 	lookupStabilitySig:mean 	0.67831725627184
scalar Network.dyn_peer[34] 	lookupHopsSig:mean 	20
scalar Network.dyn_peer[35] 	lookupTimeSig:mean 	2.75
scalar Network.dyn_peer[35] 	lookupStabilitySig:mean 	0.60156963362048
scalar Network.dyn_peer[35] 	lookupHopsSig:mean 	26.666666666667
scalar Network.dyn_peer[36] 	lookupTimeSig:mean 	1.08
scalar Network.dyn_peer[36] 	lookupStabilitySig:mean 	0.29009521752596
scalar Network.dyn_peer[36] 	lookupHopsSig:mean 	10
scalar Network.dyn_peer[37] 	lookupTimeSig:mean 	4.7
scalar Network.dyn_peer[37] 	lookupStabilitySig:mean 	0.49578453600407
scalar Network.dyn_peer[37] 	lookupHopsSig:mean 	46.5
scalar Network.dyn_peer[38] 	lookupTimeSig:mean 	1.32
scalar Network.dyn_peer[38] 	lookupStabilitySig:mean 	0.67136149983853
scalar Network.dyn_peer[38] 	lookupHopsSig:mean 	12.3
scalar Network.dyn_peer[39] 	lookupTimeSig:mean 	1.09
scalar Network.dyn_peer[39] 	lookupStabilitySig:mean 	0.699006349314
scalar Network.dyn_peer[39] 	lookupHopsSig:mean 	10
scalar Network.dyn_peer[40] 	lookupTimeSig:mean 	1.95
scalar Network.dyn_peer[40] 	lookupStabilitySig:mean 	0.915426686313
scalar Network.dyn_peer[40] 	lookupHopsSig:mean 	18.6
scalar Network.dyn_peer[41] 	lookupTimeSig:mean 	2.56
scalar Network.dyn_peer[41] 	lookupStabilitySig:mean 	0.80441564545035
scalar Network.dyn_peer[41] 	lookupHopsSig:mean 	24.8
scalar Network.dyn_peer[42] 	lookupTimeSig:mean 	1.95
scalar Network.dyn_peer[42] 	lookupStabilitySig:mean 	0.53453452823063
scalar Network.dyn_peer[42] 	lookupHopsSig:mean 	18.666666666667
scalar Network.dyn_peer[43] 	lookupTimeSig:mean 	1.96
scalar Network.dyn_peer[43] 	lookupStabilitySig:mean 	0.47735767066479
scalar Network.dyn_peer[43] 	lookupHopsSig:mean 	18.8
scalar Network.dyn_peer[44] 	lookupTimeSig:mean 	2.5666666666667
scalar Network.dyn_peer[44] 	lookupStabilitySig:mean 	0.40506145358086
scalar Network.dyn_peer[44] 	lookupHopsSig:mean 	25
scalar Network.dyn_peer[45] 	lookupTimeSig:mean 	1.525
scalar Network.dyn_peer[45] 	lookupStabilitySig:mean 	0.59400660230312
scalar Network.dyn_peer[45] 	lookupHopsSig:mean 	14.375
scalar Network.dyn_peer[46] 	lookupTimeSig:mean 	1.32
scalar Network.dyn_peer[46] 	lookupStabilitySig:mean 	0.67782008256763
scalar Network.dyn_peer[46] 	lookupHopsSig:mean 	12.4
scalar Network.dyn_peer[47] 	lookupTimeSig:mean 	1.52
scalar Network.dyn_peer[47] 	lookupStabilitySig:mean 	0.78542726114392
scalar Network.dyn_peer[47] 	lookupHopsSig:mean 	14.4
scalar Network.dyn_peer[48] 	lookupTimeSig:mean 	3.3666666666667
scalar Network.dyn_peer[48] 	lookupStabilitySig:mean 	0.42703320582708
scalar Network.dyn_peer[48] 	lookupHopsSig:mean 	33
scalar Network.dyn_peer[49] 	lookupTimeSig:mean 	1.375
scalar Network.dyn_peer[49] 	lookupStabilitySig:mean 	0.60479141538963
scalar Network.dyn_peer[49] 	lookupHopsSig:mean 	12.875
scalar Network.dyn_peer[50] 	lookupTimeSig:mean 	1.65
scalar Network.dyn_peer[50] 	lookupStabilitySig:mean 	0.42072458689411
scalar Network.dyn_peer[50] 	lookupHopsSig:mean 	15.666666666667
scalar Network.dyn_peer[51] 	lookupTimeSig:mean 	1.94
scalar Network.dyn_peer[51] 	lookupStabilitySig:mean 	0.8462526995223
scalar Network.dyn_peer[51] 	lookupHopsSig:mean 	18.5
scalar Network.dyn_peer[52] 	lookupTimeSig:mean 	1.3
scalar Network.dyn_peer[52] 	lookupStabilitySig:mean 	0.3796550584957
scalar Network.dyn_peer[52] 	lookupHopsSig:mean 	12.25
scalar Network.dyn_peer[53] 	lookupTimeSig:mean 	2.4
scalar Network.dyn_peer[53] 	lookupStabilitySig:mean 	0.84737740084529
scalar Network.dyn_peer[53] 	lookupHopsSig:mean 	23.142857142857
scalar Network.dyn_peer[54] 	lookupTimeSig:mean 	1.2857142857143
scalar Network.dyn_peer[54] 	lookupStabilitySig:mean 	0.76277114896636
scalar Network.dyn_peer[54] 	lookupHopsSig:mean 	12
scalar Network.dyn_peer[55] 	lookupTimeSig:mean 	2.4
scalar Network.dyn_peer[55] 	lookupStabilitySig:mean 	0.43266642233357
scalar Network.dyn_peer[55] 	lookupHopsSig:mean 	23.25
scalar Network.dyn_peer[56] 	lookupTimeSig:mean 	1.6625
scalar Network.dyn_peer[56] 	lookupStabilitySig:mean 	0.82844134932384
scalar Network.dyn_peer[56] 	lookupHopsSig:mean 	15.75
scalar Network.dyn_peer[57] 	lookupTimeSig:mean 	1.4625
scalar Network.dyn_peer[57] 	lookupStabilitySig:mean 	0.6520838313736
scalar Network.dyn_peer[57] 	lookupHopsSig:mean 	13.75
scalar Network.dyn_peer[58] 	lookupTimeSig:mean 	1.9
scalar Network.dyn_peer[58] 	lookupStabilitySig:mean 	0.31417413800955
scalar Network.dyn_peer[58] 	lookupHopsSig:mean 	18.25
scalar Network.dyn_peer[59] 	lookupTimeSig:mean 	2.675
scalar Network.dyn_peer[59] 	lookupStabilitySig:mean 	0.67048139125109
scalar Network.dyn_peer[59] 	lookupHopsSig:mean 	26
scalar Network.dyn_peer[60] 	lookupTimeSig:mean 	2.225
scalar Network.dyn_peer[60] 	lookupStabilitySig:mean 	0.17799029871821
scalar Network.dyn_peer[60] 	lookupHopsSig:mean 	21.5
scalar Network.dyn_peer[61] 	lookupTimeSig:mean 	1.46
scalar Network.dyn_peer[61] 	lookupStabilitySig:mean 	0.46661804020405
scalar Network.dyn_peer[61] 	lookupHopsSig:mean 	13.8
scalar Network.dyn_peer[62] 	lookupTimeSig:mean 	2.1
scalar Network.dyn_peer[62] 	lookupStabilitySig:mean 	0.91293609887362
scalar Network.dyn_peer[62] 	lookupHopsSig:mean 	20.142857142857
scalar Network.dyn_peer[63] 	lookupTimeSig:mean 	2.94
scalar Network.dyn_peer[63] 	lookupStabilitySig:mean 	0.50139728486538
scalar Network.dyn_peer[63] 	lookupHopsSig:mean 	28.6
scalar Network.dyn_peer[64] 	lookupTimeSig:mean 	2.9
scalar Network.dyn_peer[64] 	lookupStabilitySig:mean 	0.62162877743443
scalar Network.dyn_peer[64] 	lookupHopsSig:mean 	28.333333333333
scalar Network.dyn_peer[65] 	lookupTimeSig:mean 	1.9
scalar Network.dyn_peer[65] 	lookupStabilitySig:mean 	0.80515019539744
scalar Network.dyn_peer[65] 	lookupHopsSig:mean 	18.2
scalar Network.dyn_peer[66] 	lookupTimeSig:mean 	2.94
scalar Network.dyn_peer[66] 	lookupStabilitySig:mean 	0.89171420559287
scalar Network.dyn_peer[66] 	lookupHopsSig:mean 	28.6
scalar Network.dyn_peer[67] 	lookupTimeSig:mean 	2.5285714285714
scalar Network.dyn_peer[67] 	lookupStabilitySig:mean 	0.85107609150665
scalar Network.dyn_peer[67] 	lookupHopsSig:mean 	24.428571428571
scalar Network.dyn_peer[68] 	lookupTimeSig:mean 	1.775
scalar Network.dyn_peer[68] 	lookupStabilitySig:mean 	0.64867297466844
scalar Network.dyn_peer[68] 	lookupHopsSig:mean 	17
scalar Network.dyn_peer[69] 	lookupTimeSig:mean 	1.9
scalar Network.dyn_peer[69] 	lookupStabilitySig:mean 	0.80592258471168
scalar Network.dyn_peer[69] 	lookupHopsSig:mean 	18.111111111111
scalar Network.dyn_peer[70] 	lookupTimeSig:mean 	0.98
scalar Network.dyn_peer[70] 	lookupStabilitySig:mean 	0.35071904212236
scalar Network.dyn_peer[70] 	lookupHopsSig:mean 	9
scalar Network.dyn_peer[71] 	lookupTimeSig:mean 	2.1333333333333
scalar Network.dyn_peer[71] 	lookupStabilitySig:mean 	0.80274844250331
scalar Network.dyn_peer[71] 	lookupHopsSig:mean 	20.4
scalar Network.dyn_peer[72] 	lookupTimeSig:mean 	1.5727272727273
scalar Network.dyn_peer[72] 	lookupStabilitySig:mean 	0.92907593818381
scalar Network.dyn_peer[72] 	lookupHopsSig:mean 	14.818181818182
scalar Network.dyn_peer[73] 	lookupTimeSig:mean 	2.6
scalar Network.dyn_peer[73] 	lookupStabilitySig:mean 	0.41584869722525
scalar Network.dyn_peer[73] 	lookupHopsSig:mean 	25.333333333333
scalar Network.dyn_peer[74] 	lookupTimeSig:mean 	1.8714285714286
scalar Network.dyn_peer[74] 	lookupStabilitySig:mean 	0.66590995241755
scalar Network.dyn_peer[74] 	lookupHopsSig:mean 	17.857142857143
scalar Network.dyn_peer[75] 	lookupTimeSig:mean 	1.5285714285714
scalar Network.dyn_peer[75] 	lookupStabilitySig:mean 	0.58149677328765
scalar Network.dyn_peer[75] 	lookupHopsSig:mean 	14.428571428571
scalar Network.dyn_peer[76] 	lookupTimeSig:mean 	1.6428571428571
scalar Network.dyn_peer[76] 	lookupStabilitySig:mean 	0.55187250248023
scalar Network.dyn_peer[76] 	lookupHopsSig:mean 	15.571428571429
scalar Network.dyn_peer[77] 	lookupTimeSig:mean 	1.475
scalar Network.dyn_peer[77] 	lookupStabilitySig:mean 	0.82084235198272
scalar Network.dyn_peer[77] 	lookupHopsSig:mean 	13.875
scalar Network.dyn_peer[78] 	lookupTimeSig:mean 	1.7666666666667
scalar Network.dyn_peer[78] 	lookupStabilitySig:mean 	0.020671824614207
scalar Network.dyn_peer[78] 	lookupHopsSig:mean 	17
scalar Network.dyn_peer[79] 	lookupTimeSig:mean 	1.12
scalar Network.dyn_peer[79] 	lookupStabilitySig:mean 	0.46802559867501
scalar Network.dyn_peer[79] 	lookupHopsSig:mean 	10.4
scalar Network.dyn_peer[80] 	lookupTimeSig:mean 	2.0111111111111
scalar Network.dyn_peer[80] 	lookupStabilitySig:mean 	0.89218400837854
scalar Network.dyn_peer[80] 	lookupHopsSig:mean 	19.222222222222
scalar Network.dyn_peer[81] 	lookupTimeSig:mean 	2.5333333333333
scalar Network.dyn_peer[81] 	lookupStabilitySig:mean 	0.80839656258468
scalar Network.dyn_peer[81] 	lookupHopsSig:mean 	24.5
scalar Network.dyn_peer[82] 	lookupTimeSig:mean 	1.2666666666667
scalar Network.dyn_peer[82] 	lookupStabilitySig:mean 	-0.090909093618393
scalar Network.dyn_peer[82] 	lookupHopsSig:mean 	12
scalar Network.dyn_peer[83] 	lookupTimeSig:mean 	1.4636363636364
scalar Network.dyn_peer[83] 	lookupStabilitySig:mean 	0.71721184342592
scalar Network.dyn_peer[83] 	lookupHopsSig:mean 	13.727272727273
scalar Network.dyn_peer[84] 	lookupTimeSig:mean 	1.0285714285714
scalar Network.dyn_peer[84] 	lookupStabilitySig:mean 	0.74831860964852
scalar Network.dyn_peer[84] 	lookupHopsSig:mean 	9.4285714285714
scalar Network.dyn_peer[85] 	lookupTimeSig:mean 	1.2
scalar Network.dyn_peer[85] 	lookupStabilitySig:mean 	0.18503786250949
scalar Network.dyn_peer[85] 	lookupHopsSig:mean 	11.25
scalar Network.dyn_peer[86] 	lookupTimeSig:mean 	1.25
scalar Network.dyn_peer[86] 	lookupStabilitySig:mean 	0.41506821475923
scalar Network.dyn_peer[86] 	lookupHopsSig:mean 	11.75
scalar Network.dyn_peer[87] 	lookupTimeSig:mean 	1.34
scalar Network.dyn_peer[87] 	lookupStabilitySig:mean 	0.31318127587438
scalar Network.dyn_peer[87] 	lookupHopsSig:mean 	12.6
scalar Network.dyn_peer[88] 	lookupTimeSig:mean 	1.64
scalar Network.dyn_peer[88] 	lookupStabilitySig:mean 	0.36052518114448
scalar Network.dyn_peer[88] 	lookupHopsSig:mean 	15.6
scalar Network.dyn_peer[89] 	lookupTimeSig:mean 	2.675
scalar Network.dyn_peer[89] 	lookupStabilitySig:mean 	0.74841503426433
scalar Network.dyn_peer[89] 	lookupHopsSig:mean 	26
scalar Network.dyn_peer[90] 	lookupTimeSig:mean 	4.2666666666667
scalar Network.dyn_peer[90] 	lookupStabilitySig:mean 	0.35433135926723
scalar Network.dyn_peer[90] 	lookupHopsSig:mean 	42
scalar Network.dyn_peer[91] 	lookupTimeSig:mean 	1.95
scalar Network.dyn_peer[91] 	lookupStabilitySig:mean 	0.33602549135685
scalar Network.dyn_peer[91] 	lookupHopsSig:mean 	18.75
scalar Network.dyn_peer[92] 	lookupTimeSig:mean 	1.7
scalar Network.dyn_peer[92] 	lookupStabilitySig:mean 	0.64384680567309
scalar Network.dyn_peer[92] 	lookupHopsSig:mean 	16.25
scalar Network.dyn_peer[93] 	lookupTimeSig:mean 	2.6666666666667
scalar Network.dyn_peer[93] 	lookupStabilitySig:mean 	0.086538434028625
scalar Network.dyn_peer[93] 	lookupHopsSig:mean 	26
scalar Network.dyn_peer[94] 	lookupTimeSig:mean 	2.85
scalar Network.dyn_peer[94] 	lookupStabilitySig:mean 	0.69094423685844
scalar Network.dyn_peer[94] 	lookupHopsSig:mean 	27.666666666667
scalar Network.dyn_peer[95] 	lookupTimeSig:mean 	1.8
scalar Network.dyn_peer[95] 	lookupStabilitySig:mean 	-0.19930066168308
scalar Network.dyn_peer[95] 	lookupHopsSig:mean 	17.5
scalar Network.dyn_peer[96] 	lookupTimeSig:mean 	1.65
scalar Network.dyn_peer[96] 	lookupStabilitySig:mean 	0.58640495035797
scalar Network.dyn_peer[96] 	lookupHopsSig:mean 	15.75
scalar Network.dyn_peer[97] 	lookupTimeSig:mean 	2.24
scalar Network.dyn_peer[97] 	lookupStabilitySig:mean 	0.63083068430424
scalar Network.dyn_peer[97] 	lookupHopsSig:mean 	21.6
scalar Network.dyn_peer[98] 	lookupTimeSig:mean 	1.6285714285714
scalar Network.dyn_peer[98] 	lookupStabilitySig:mean 	0.87209156847426
scalar Network.dyn_peer[98] 	lookupHopsSig:mean 	15.428571428571
scalar Network.dyn_peer[99] 	lookupTimeSig:mean 	2.2833333333333
scalar Network.dyn_peer[99] 	lookupStabilitySig:mean 	0.91976252074043
scalar Network.dyn_peer[99] 	lookupHopsSig:mean 	22
scalar Network.dyn_peer[100] 	lookupTimeSig:mean 	1.55
scalar Network.dyn_peer[100] 	lookupStabilitySig:mean 	0.57363670319319
scalar Network.dyn_peer[100] 	lookupHopsSig:mean 	14.75
scalar Network.dyn_peer[101] 	lookupTimeSig:mean 	3.0333333333333
scalar Network.dyn_peer[101] 	lookupStabilitySig:mean 	0.58092893163363
scalar Network.dyn_peer[101] 	lookupHopsSig:mean 	29.666666666667
scalar Network.dyn_peer[102] 	lookupTimeSig:mean 	1.6
scalar Network.dyn_peer[102] 	lookupStabilitySig:mean 	0.57613717738007
scalar Network.dyn_peer[102] 	lookupHopsSig:mean 	15.142857142857
scalar Network.dyn_peer[103] 	lookupTimeSig:mean 	1.4333333333333
scalar Network.dyn_peer[103] 	lookupStabilitySig:mean 	0.34053672353427
scalar Network.dyn_peer[103] 	lookupHopsSig:mean 	13.666666666667
scalar Network.dyn_peer[104] 	lookupTimeSig:mean 	1.5666666666667
scalar Network.dyn_peer[104] 	lookupStabilitySig:mean 	0.89367157407105
scalar Network.dyn_peer[104] 	lookupHopsSig:mean 	14.833333333333
scalar Network.dyn_peer[105] 	lookupTimeSig:mean 	1.6
scalar Network.dyn_peer[105] 	lookupStabilitySig:mean 	0.11926236376166
scalar Network.dyn_peer[105] 	lookupHopsSig:mean 	15.25
scalar Network.dyn_peer[106] 	lookupTimeSig:mean 	2.7333333333333
scalar Network.dyn_peer[106] 	lookupStabilitySig:mean 	0.3828808106482
scalar Network.dyn_peer[106] 	lookupHopsSig:mean 	26.666666666667
scalar Network.dyn_peer[107] 	lookupTimeSig:mean 	2.2
scalar Network.dyn_peer[107] 	lookupStabilitySig:mean 	0.51379674002528
scalar Network.dyn_peer[107] 	lookupHopsSig:mean 	21.2
scalar Network.dyn_peer[108] 	lookupTimeSig:mean 	1.3857142857143
scalar Network.dyn_peer[108] 	lookupStabilitySig:mean 	0.80285901223708
scalar Network.dyn_peer[108] 	lookupHopsSig:mean 	13
scalar Network.dyn_peer[109] 	lookupTimeSig:mean 	2.1
scalar Network.dyn_peer[109] 	lookupStabilitySig:mean 	0.5651663672179
scalar Network.dyn_peer[109] 	lookupHopsSig:mean 	20.25
scalar Network.dyn_peer[110] 	lookupTimeSig:mean 	1.7538461538462
scalar Network.dyn_peer[110] 	lookupStabilitySig:mean 	0.96256697371316
scalar Network.dyn_peer[110] 	lookupHopsSig:mean 	16.615384615385
scalar Network.dyn_peer[111] 	lookupTimeSig:mean 	2.2
scalar Network.dyn_peer[111] 	lookupStabilitySig:mean 	-0.28275296092033
scalar Network.dyn_peer[111] 	lookupHopsSig:mean 	21.5
scalar Network.dyn_peer[112] 	lookupTimeSig:mean 	1.8666666666667
scalar Network.dyn_peer[112] 	lookupStabilitySig:mean 	0.84492602044096
scalar Network.dyn_peer[112] 	lookupHopsSig:mean 	17.833333333333
scalar Network.dyn_peer[113] 	lookupTimeSig:mean 	1.76
scalar Network.dyn_peer[113] 	lookupStabilitySig:mean 	0.40610511898994
scalar Network.dyn_peer[113] 	lookupHopsSig:mean 	16.8
scalar Network.dyn_peer[114] 	lookupTimeSig:mean 	1.05
scalar Network.dyn_peer[114] 	lookupStabilitySig:mean 	0.64213345805183
scalar Network.dyn_peer[114] 	lookupHopsSig:mean 	9.625
scalar Network.dyn_peer[115] 	lookupTimeSig:mean 	1.2714285714286
scalar Network.dyn_peer[115] 	lookupStabilitySig:mean 	0.56008229830435
scalar Network.dyn_peer[115] 	lookupHopsSig:mean 	11.857142857143
scalar Network.dyn_peer[116] 	lookupTimeSig:mean 	1.9428571428571
scalar Network.dyn_peer[116] 	lookupStabilitySig:mean 	0.8290175035862
scalar Network.dyn_peer[116] 	lookupHopsSig:mean 	18.571428571429
scalar Network.dyn_peer[117] 	lookupTimeSig:mean 	2.3833333333333
scalar Network.dyn_peer[117] 	lookupStabilitySig:mean 	0.60898852876077
scalar Network.dyn_peer[117] 	lookupHopsSig:mean 	23
scalar Network.dyn_peer[118] 	lookupTimeSig:mean 	1.2
scalar Network.dyn_peer[118] 	lookupStabilitySig:mean 	0.36561204250902
scalar Network.dyn_peer[118] 	lookupHopsSig:mean 	11.2
scalar Network.dyn_peer[119] 	lookupTimeSig:mean 	1.975
scalar Network.dyn_peer[119] 	lookupStabilitySig:mean 	0.40305100753903
scalar Network.dyn_peer[119] 	lookupHopsSig:mean 	19
scalar Network.dyn_peer[120] 	lookupTimeSig:mean 	1.175
scalar Network.dyn_peer[120] 	lookupStabilitySig:mean 	0.54721879120916
scalar Network.dyn_peer[120] 	lookupHopsSig:mean 	11
scalar Network.dyn_peer[121] 	lookupTimeSig:mean 	2.175
scalar Network.dyn_peer[121] 	lookupStabilitySig:mean 	0.301504381001
scalar Network.dyn_peer[121] 	lookupHopsSig:mean 	21
scalar Network.dyn_peer[122] 	lookupTimeSig:mean 	1.225
scalar Network.dyn_peer[122] 	lookupStabilitySig:mean 	0.19793942756951
scalar Network.dyn_peer[122] 	lookupHopsSig:mean 	11.5
scalar Network.dyn_peer[123] 	lookupTimeSig:mean 	1.38
scalar Network.dyn_peer[123] 	lookupStabilitySig:mean 	0.43342909198254
scalar Network.dyn_peer[123] 	lookupHopsSig:mean 	13
scalar Network.dyn_peer[124] 	lookupTimeSig:mean 	2.7
scalar Network.dyn_peer[124] 	lookupStabilitySig:mean 	0.86828265804797
scalar Network.dyn_peer[124] 	lookupHopsSig:mean 	26.25
scalar Network.dyn_peer[125] 	lookupTimeSig:mean 	1.925
scalar Network.dyn_peer[125] 	lookupStabilitySig:mean 	0.63024859502912
scalar Network.dyn_peer[125] 	lookupHopsSig:mean 	18.5
scalar Network.dyn_peer[126] 	lookupTimeSig:mean 	1.0666666666667
scalar Network.dyn_peer[126] 	lookupStabilitySig:mean 	-0.035714288552602
scalar Network.dyn_peer[126] 	lookupHopsSig:mean 	10
scalar Network.dyn_peer[127] 	lookupTimeSig:mean 	1.6833333333333
scalar Network.dyn_peer[127] 	lookupStabilitySig:mean 	0.53697661651919
scalar Network.dyn_peer[127] 	lookupHopsSig:mean 	16
scalar Network.dyn_peer[128] 	lookupTimeSig:mean 	0.95
scalar Network.dyn_peer[128] 	lookupStabilitySig:mean 	0.43104415324827
scalar Network.dyn_peer[128] 	lookupHopsSig:mean 	8.6666666666667
scalar Network.dyn_peer[129] 	lookupTimeSig:mean 	1.31
scalar Network.dyn_peer[129] 	lookupStabilitySig:mean 	0.94138957276009
scalar Network.dyn_peer[129] 	lookupHopsSig:mean 	12.2
scalar Network.dyn_peer[130] 	lookupTimeSig:mean 	1.7571428571429
scalar Network.dyn_peer[130] 	lookupStabilitySig:mean 	0.61832819746009
scalar Network.dyn_peer[130] 	lookupHopsSig:mean 	16.714285714286
scalar Network.dyn_peer[131] 	lookupTimeSig:mean 	1.3636363636364
scalar Network.dyn_peer[131] 	lookupStabilitySig:mean 	0.72128874977881
scalar Network.dyn_peer[131] 	lookupHopsSig:mean 	12.727272727273
scalar Network.dyn_peer[132] 	lookupTimeSig:mean 	1.7785714285714
scalar Network.dyn_peer[132] 	lookupStabilitySig:mean 	0.91108107774718
scalar Network.dyn_peer[132] 	lookupHopsSig:mean 	16.857142857143
scalar Network.dyn_peer[133] 	lookupTimeSig:mean 	2
scalar Network.dyn_peer[133] 	lookupStabilitySig:mean 	0.83235048751036
scalar Network.dyn_peer[133] 	lookupHopsSig:mean 	19.166666666667
scalar Network.dyn_peer[134] 	lookupTimeSig:mean 	1.5
scalar Network.dyn_peer[134] 	lookupStabilitySig:mean 	0.69133813652609
scalar Network.dyn_peer[134] 	lookupHopsSig:mean 	14.142857142857
scalar Network.dyn_peer[135] 	lookupTimeSig:mean 	2.575
scalar Network.dyn_peer[135] 	lookupStabilitySig:mean 	0.57671410078183
scalar Network.dyn_peer[135] 	lookupHopsSig:mean 	25
scalar Network.dyn_peer[136] 	lookupTimeSig:mean 	1.9375
scalar Network.dyn_peer[136] 	lookupStabilitySig:mean 	0.70005554030649
scalar Network.dyn_peer[136] 	lookupHopsSig:mean 	18.5
scalar Network.dyn_peer[137] 	lookupTimeSig:mean 	1.3666666666667
scalar Network.dyn_peer[137] 	lookupStabilitySig:mean 	0.4418590515852
scalar Network.dyn_peer[137] 	lookupHopsSig:mean 	12.833333333333
scalar Network.dyn_peer[138] 	lookupTimeSig:mean 	2.02
scalar Network.dyn_peer[138] 	lookupStabilitySig:mean 	0.66873231893405
scalar Network.dyn_peer[138] 	lookupHopsSig:mean 	19.4
scalar Network.dyn_peer[139] 	lookupTimeSig:mean 	1.3
scalar Network.dyn_peer[139] 	lookupStabilitySig:mean 	0.18832099996507
scalar Network.dyn_peer[139] 	lookupHopsSig:mean 	12.25
scalar Network.dyn_peer[140] 	lookupTimeSig:mean 	1.68
scalar Network.dyn_peer[140] 	lookupStabilitySig:mean 	0.77523266375065
scalar Network.dyn_peer[140] 	lookupHopsSig:mean 	16
scalar Network.dyn_peer[141] 	lookupTimeSig:mean 	1.625
scalar Network.dyn_peer[141] 	lookupStabilitySig:mean 	0.67991714645177
scalar Network.dyn_peer[141] 	lookupHopsSig:mean 	15.375
scalar Network.dyn_peer[142] 	lookupTimeSig:mean 	1.9142857142857
scalar Network.dyn_peer[142] 	lookupStabilitySig:mean 	0.5653916541487
scalar Network.dyn_peer[142] 	lookupHopsSig:mean 	18.285714285714
scalar Network.dyn_peer[143] 	lookupTimeSig:mean 	1.64
scalar Network.dyn_peer[143] 	lookupStabilitySig:mean 	0.79649108573794
scalar Network.dyn_peer[143] 	lookupHopsSig:mean 	15.6
scalar Network.dyn_peer[144] 	lookupTimeSig:mean 	4.05
scalar Network.dyn_peer[144] 	lookupStabilitySig:mean 	0.37996179610491
scalar Network.dyn_peer[144] 	lookupHopsSig:mean 	40
scalar Network.dyn_peer[145] 	lookupTimeSig:mean 	2.0875
scalar Network.dyn_peer[145] 	lookupStabilitySig:mean 	0.81597522110678
scalar Network.dyn_peer[145] 	lookupHopsSig:mean 	20
scalar Network.dyn_peer[146] 	lookupTimeSig:mean 	1.5875
scalar Network.dyn_peer[146] 	lookupStabilitySig:mean 	0.55215006915387
scalar Network.dyn_peer[146] 	lookupHopsSig:mean 	15
scalar Network.dyn_peer[147] 	lookupTimeSig:mean 	1.4666666666667
scalar Network.dyn_peer[147] 	lookupStabilitySig:mean 	0.69386691258599
scalar Network.dyn_peer[147] 	lookupHopsSig:mean 	13.833333333333
scalar Network.dyn_peer[148] 	lookupTimeSig:mean 	0.9
scalar Network.dyn_peer[148] 	lookupStabilitySig:mean 	-0.015873034795125
scalar Network.dyn_peer[148] 	lookupHopsSig:mean 	8.3333333333333
scalar Network.dyn_peer[149] 	lookupTimeSig:mean 	2.4
scalar Network.dyn_peer[149] 	lookupStabilitySig:mean 	-0.19285710155964
scalar Network.dyn_peer[149] 	lookupHopsSig:mean 	23.5
scalar Network.dyn_peer[150] 	lookupTimeSig:mean 	1.8333333333333
scalar Network.dyn_peer[150] 	lookupStabilitySig:mean 	0.15120435754458
scalar Network.dyn_peer[150] 	lookupHopsSig:mean 	17.666666666667
scalar Network.dyn_peer[151] 	lookupTimeSig:mean 	2.125
scalar Network.dyn_peer[151] 	lookupStabilitySig:mean 	0.25065904483199
scalar Network.dyn_peer[151] 	lookupHopsSig:mean 	20.5
scalar Network.dyn_peer[152] 	lookupTimeSig:mean 	1.78
scalar Network.dyn_peer[152] 	lookupStabilitySig:mean 	0.94538956061006
scalar Network.dyn_peer[152] 	lookupHopsSig:mean 	16.9
scalar Network.dyn_peer[153] 	lookupTimeSig:mean 	3.4
scalar Network.dyn_peer[153] 	lookupStabilitySig:mean 	0.24004459877809
scalar Network.dyn_peer[153] 	lookupHopsSig:mean 	33.333333333333
scalar Network.dyn_peer[154] 	lookupTimeSig:mean 	1.5
scalar Network.dyn_peer[154] 	lookupStabilitySig:mean 	0.65822147391737
scalar Network.dyn_peer[154] 	lookupHopsSig:mean 	14.166666666667
scalar Network.dyn_peer[155] 	lookupTimeSig:mean 	1.4125
scalar Network.dyn_peer[155] 	lookupStabilitySig:mean 	0.78600546054076
scalar Network.dyn_peer[155] 	lookupHopsSig:mean 	13.25
scalar Network.dyn_peer[156] 	lookupTimeSig:mean 	1.4666666666667
scalar Network.dyn_peer[156] 	lookupStabilitySig:mean 	0.68731867708266
scalar Network.dyn_peer[156] 	lookupHopsSig:mean 	14
scalar Network.dyn_peer[157] 	lookupTimeSig:mean 	1.78
scalar Network.dyn_peer[157] 	lookupStabilitySig:mean 	0.71661225371063
scalar Network.dyn_peer[157] 	lookupHopsSig:mean 	17
scalar Network.dyn_peer[158] 	lookupTimeSig:mean 	1.55
scalar Network.dyn_peer[158] 	lookupStabilitySig:mean 	0.93170439160895
scalar Network.dyn_peer[158] 	lookupHopsSig:mean 	14.625
scalar Network.dyn_peer[159] 	lookupTimeSig:mean 	1.3666666666667
scalar Network.dyn_peer[159] 	lookupStabilitySig:mean 	0.62410511060928
scalar Network.dyn_peer[159] 	lookupHopsSig:mean 	12.777777777778
scalar Network.dyn_peer[160] 	lookupTimeSig:mean 	2.2428571428571
scalar Network.dyn_peer[160] 	lookupStabilitySig:mean 	0.89933409435408
scalar Network.dyn_peer[160] 	lookupHopsSig:mean 	21.571428571429
scalar Network.dyn_peer[161] 	lookupTimeSig:mean 	3.925
scalar Network.dyn_peer[161] 	lookupStabilitySig:mean 	0.85710438434035
scalar Network.dyn_peer[161] 	lookupHopsSig:mean 	38.5
scalar Network.dyn_peer[162] 	lookupTimeSig:mean 	2.9
scalar Network.dyn_peer[162] 	lookupStabilitySig:mean 	0.35010624925296
scalar Network.dyn_peer[162] 	lookupHopsSig:mean 	28.333333333333
scalar Network.dyn_peer[163] 	lookupTimeSig:mean 	2.7333333333333
scalar Network.dyn_peer[163] 	lookupStabilitySig:mean 	0.38729393978914
scalar Network.dyn_peer[163] 	lookupHopsSig:mean 	26.666666666667
scalar Network.dyn_peer[164] 	lookupTimeSig:mean 	1.76
scalar Network.dyn_peer[164] 	lookupStabilitySig:mean 	0.88869844805449
scalar Network.dyn_peer[164] 	lookupHopsSig:mean 	16.8
scalar Network.dyn_peer[165] 	lookupTimeSig:mean 	1.2
scalar Network.dyn_peer[165] 	lookupStabilitySig:mean 	0.46625484339893
scalar Network.dyn_peer[165] 	lookupHopsSig:mean 	11.25
scalar Network.dyn_peer[166] 	lookupTimeSig:mean 	2.4333333333333
scalar Network.dyn_peer[166] 	lookupStabilitySig:mean 	0.59248400976261
scalar Network.dyn_peer[166] 	lookupHopsSig:mean 	23.666666666667
scalar Network.dyn_peer[167] 	lookupTimeSig:mean 	2.5
scalar Network.dyn_peer[167] 	lookupStabilitySig:mean 	0.58058542758226
scalar Network.dyn_peer[167] 	lookupHopsSig:mean 	24.5
scalar Network.dyn_peer[168] 	lookupTimeSig:mean 	2.25
scalar Network.dyn_peer[168] 	lookupStabilitySig:mean 	-0.13698630034924
scalar Network.dyn_peer[168] 	lookupHopsSig:mean 	22
scalar Network.dyn_peer[169] 	lookupTimeSig:mean 	1.4888888888889
scalar Network.dyn_peer[169] 	lookupStabilitySig:mean 	0.70983903213508
scalar Network.dyn_peer[169] 	lookupHopsSig:mean 	14
scalar Network.dyn_peer[170] 	lookupTimeSig:mean 	2.3333333333333
scalar Network.dyn_peer[170] 	lookupStabilitySig:mean 	0.68990221371253
scalar Network.dyn_peer[170] 	lookupHopsSig:mean 	22.666666666667
scalar Network.dyn_peer[171] 	lookupTimeSig:mean 	1.2
scalar Network.dyn_peer[171] 	lookupStabilitySig:mean 	0.46476716548204
scalar Network.dyn_peer[171] 	lookupHopsSig:mean 	11.25
scalar Network.dyn_peer[172] 	lookupTimeSig:mean 	2.8
scalar Network.dyn_peer[172] 	lookupStabilitySig:mean 	-0.14238411188126
scalar Network.dyn_peer[172] 	lookupHopsSig:mean 	27.5
scalar Network.dyn_peer[173] 	lookupTimeSig:mean 	1.6769230769231
scalar Network.dyn_peer[173] 	lookupStabilitySig:mean 	0.91954318025651
scalar Network.dyn_peer[173] 	lookupHopsSig:mean 	15.846153846154
scalar Network.dyn_peer[174] 	lookupTimeSig:mean 	2.78
scalar Network.dyn_peer[174] 	lookupStabilitySig:mean 	0.88278948478401
scalar Network.dyn_peer[174] 	lookupHopsSig:mean 	27
scalar Network.dyn_peer[175] 	lookupTimeSig:mean 	2.1444444444444
scalar Network.dyn_peer[175] 	lookupStabilitySig:mean 	0.95605661430293
scalar Network.dyn_peer[175] 	lookupHopsSig:mean 	20.555555555556
scalar Network.dyn_peer[176] 	lookupTimeSig:mean 	1.4
scalar Network.dyn_peer[176] 	lookupStabilitySig:mean 	0.73025495170926
scalar Network.dyn_peer[176] 	lookupHopsSig:mean 	13.166666666667
scalar Network.dyn_peer[177] 	lookupTimeSig:mean 	1.5888888888889
scalar Network.dyn_peer[177] 	lookupStabilitySig:mean 	0.84111941895551
scalar Network.dyn_peer[177] 	lookupHopsSig:mean 	15
scalar Network.dyn_peer[178] 	lookupTimeSig:mean 	1.8
scalar Network.dyn_peer[178] 	lookupStabilitySig:mean 	0.71914325989783
scalar Network.dyn_peer[178] 	lookupHopsSig:mean 	17.2
scalar Network.dyn_peer[179] 	lookupTimeSig:mean 	1.35
scalar Network.dyn_peer[179] 	lookupStabilitySig:mean 	0.69709242344834
scalar Network.dyn_peer[179] 	lookupHopsSig:mean 	12.6
scalar Network.dyn_peer[180] 	lookupTimeSig:mean 	1.7428571428571
scalar Network.dyn_peer[180] 	lookupStabilitySig:mean 	0.64832364342042
scalar Network.dyn_peer[180] 	lookupHopsSig:mean 	16.571428571429
scalar Network.dyn_peer[181] 	lookupTimeSig:mean 	1.275
scalar Network.dyn_peer[181] 	lookupStabilitySig:mean 	0.32893691211939
scalar Network.dyn_peer[181] 	lookupHopsSig:mean 	12
scalar Network.dyn_peer[182] 	lookupTimeSig:mean 	2.05
scalar Network.dyn_peer[182] 	lookupStabilitySig:mean 	0.80529068456963
scalar Network.dyn_peer[182] 	lookupHopsSig:mean 	19.666666666667
scalar Network.dyn_peer[183] 	lookupTimeSig:mean 	1.3
scalar Network.dyn_peer[183] 	lookupStabilitySig:mean 	0.6215348563024
scalar Network.dyn_peer[183] 	lookupHopsSig:mean 	12.142857142857
scalar Network.dyn_peer[184] 	lookupTimeSig:mean 	1.7
scalar Network.dyn_peer[184] 	lookupStabilitySig:mean 	0.87935972772539
scalar Network.dyn_peer[184] 	lookupHopsSig:mean 	16.125
scalar Network.dyn_peer[185] 	lookupTimeSig:mean 	2.2
scalar Network.dyn_peer[185] 	lookupStabilitySig:mean 	0.13674593468507
scalar Network.dyn_peer[185] 	lookupHopsSig:mean 	21.333333333333
scalar Network.dyn_peer[186] 	lookupTimeSig:mean 	1.85
scalar Network.dyn_peer[186] 	lookupStabilitySig:mean 	-0.19661729037762
scalar Network.dyn_peer[186] 	lookupHopsSig:mean 	18
scalar Network.dyn_peer[187] 	lookupTimeSig:mean 	1.6
scalar Network.dyn_peer[187] 	lookupStabilitySig:mean 	0.85078820368896
scalar Network.dyn_peer[187] 	lookupHopsSig:mean 	15.166666666667
scalar Network.dyn_peer[188] 	lookupTimeSig:mean 	2.725
scalar Network.dyn_peer[188] 	lookupStabilitySig:mean 	0.65708510903642
scalar Network.dyn_peer[188] 	lookupHopsSig:mean 	26.5
scalar Network.dyn_peer[189] 	lookupTimeSig:mean 	1.4166666666667
scalar Network.dyn_peer[189] 	lookupStabilitySig:mean 	0.60183185649415
scalar Network.dyn_peer[189] 	lookupHopsSig:mean 	13.333333333333
scalar Network.dyn_peer[190] 	lookupTimeSig:mean 	1.72
scalar Network.dyn_peer[190] 	lookupStabilitySig:mean 	0.6765466094017
scalar Network.dyn_peer[190] 	lookupHopsSig:mean 	16.4
scalar Network.dyn_peer[191] 	lookupTimeSig:mean 	1.12
scalar Network.dyn_peer[191] 	lookupStabilitySig:mean 	0.4509293794632
scalar Network.dyn_peer[191] 	lookupHopsSig:mean 	10.4
scalar Network.dyn_peer[192] 	lookupTimeSig:mean 	1.62
scalar Network.dyn_peer[192] 	lookupStabilitySig:mean 	0.59197697024792
scalar Network.dyn_peer[192] 	lookupHopsSig:mean 	15.4
scalar Network.dyn_peer[193] 	lookupTimeSig:mean 	1.625
scalar Network.dyn_peer[193] 	lookupStabilitySig:mean 	0.28921309346333
scalar Network.dyn_peer[193] 	lookupHopsSig:mean 	15.5
scalar Network.dyn_peer[194] 	lookupTimeSig:mean 	1.0545454545455
scalar Network.dyn_peer[194] 	lookupStabilitySig:mean 	0.75236502691934
scalar Network.dyn_peer[194] 	lookupHopsSig:mean 	9.6363636363636
scalar Network.dyn_peer[195] 	lookupTimeSig:mean 	1.87
scalar Network.dyn_peer[195] 	lookupStabilitySig:mean 	0.95320892315358
scalar Network.dyn_peer[195] 	lookupHopsSig:mean 	17.8
scalar Network.dyn_peer[196] 	lookupTimeSig:mean 	2.46
scalar Network.dyn_peer[196] 	lookupStabilitySig:mean 	0.79571338631213
scalar Network.dyn_peer[196] 	lookupHopsSig:mean 	23.8
scalar Network.dyn_peer[197] 	lookupTimeSig:mean 	1.6
scalar Network.dyn_peer[197] 	lookupStabilitySig:mean 	0.83489557914436
scalar Network.dyn_peer[197] 	lookupHopsSig:mean 	15.2
scalar Network.dyn_peer[198] 	lookupTimeSig:mean 	3.65
scalar Network.dyn_peer[198] 	lookupStabilitySig:mean 	0.58294346928596
scalar Network.dyn_peer[198] 	lookupHopsSig:mean 	36
scalar Network.dyn_peer[199] 	lookupTimeSig:mean 	2.25
scalar Network.dyn_peer[199] 	lookupStabilitySig:mean 	0.36877489648759
scalar Network.dyn_peer[199] 	lookupHopsSig:mean 	21.75
scalar Network.dyn_peer[200] 	lookupTimeSig:mean 	1.2375
scalar Network.dyn_peer[200] 	lookupStabilitySig:mean 	0.74537257000338
scalar Network.dyn_peer[200] 	lookupHopsSig:mean 	11.5
scalar Network.dyn_peer[201] 	lookupTimeSig:mean 	1.7666666666667
scalar Network.dyn_peer[201] 	lookupStabilitySig:mean 	0.44743055477738
scalar Network.dyn_peer[201] 	lookupHopsSig:mean 	16.833333333333
scalar Network.dyn_peer[202] 	lookupTimeSig:mean 	1.7444444444444
scalar Network.dyn_peer[202] 	lookupStabilitySig:mean 	0.64161977901434
scalar Network.dyn_peer[202] 	lookupHopsSig:mean 	16.555555555556
scalar Network.dyn_peer[203] 	lookupTimeSig:mean 	1.675
scalar Network.dyn_peer[203] 	lookupStabilitySig:mean 	0.56272706342861
scalar Network.dyn_peer[203] 	lookupHopsSig:mean 	16
scalar Network.dyn_peer[204] 	lookupTimeSig:mean 	1.6166666666667
scalar Network.dyn_peer[204] 	lookupStabilitySig:mean 	0.89831885284123
scalar Network.dyn_peer[204] 	lookupHopsSig:mean 	15.333333333333
scalar Network.dyn_peer[205] 	lookupTimeSig:mean 	1.3888888888889
scalar Network.dyn_peer[205] 	lookupStabilitySig:mean 	0.78547460678965
scalar Network.dyn_peer[205] 	lookupHopsSig:mean 	13
scalar Network.dyn_peer[206] 	lookupTimeSig:mean 	2.8333333333333
scalar Network.dyn_peer[206] 	lookupStabilitySig:mean 	0.41813100377719
scalar Network.dyn_peer[206] 	lookupHopsSig:mean 	27.666666666667
scalar Network.dyn_peer[207] 	lookupTimeSig:mean 	2
scalar Network.dyn_peer[207] 	lookupStabilitySig:mean 	0.60661207139492
scalar Network.dyn_peer[207] 	lookupHopsSig:mean 	19.166666666667
scalar Network.dyn_peer[208] 	lookupTimeSig:mean 	3.3
scalar Network.dyn_peer[208] 	lookupStabilitySig:mean 	0.65130156030258
scalar Network.dyn_peer[208] 	lookupHopsSig:mean 	32.333333333333
scalar Network.dyn_peer[209] 	lookupTimeSig:mean 	1.1666666666667
scalar Network.dyn_peer[209] 	lookupStabilitySig:mean 	0.91705122595239
scalar Network.dyn_peer[209] 	lookupHopsSig:mean 	10.777777777778
scalar Network.dyn_peer[210] 	lookupTimeSig:mean 	1.6166666666667
scalar Network.dyn_peer[210] 	lookupStabilitySig:mean 	0.59066620608792
scalar Network.dyn_peer[210] 	lookupHopsSig:mean 	15.333333333333
scalar Network.dyn_peer[211] 	lookupTimeSig:mean 	1.5454545454545
scalar Network.dyn_peer[211] 	lookupStabilitySig:mean 	0.92170761703429
scalar Network.dyn_peer[211] 	lookupHopsSig:mean 	14.545454545455
scalar Network.dyn_peer[212] 	lookupTimeSig:mean 	3.6
scalar Network.dyn_peer[212] 	lookupStabilitySig:mean 	0.68720666598529
scalar Network.dyn_peer[212] 	lookupHopsSig:mean 	35.25
scalar Network.dyn_peer[213] 	lookupTimeSig:mean 	1.1
scalar Network.dyn_peer[213] 	lookupStabilitySig:mean 	0.36545474380255
scalar Network.dyn_peer[213] 	lookupHopsSig:mean 	10.2
scalar Network.dyn_peer[214] 	lookupTimeSig:mean 	1.2571428571429
scalar Network.dyn_peer[214] 	lookupStabilitySig:mean 	0.73739765797343
scalar Network.dyn_peer[214] 	lookupHopsSig:mean 	11.714285714286
scalar Network.dyn_peer[215] 	lookupTimeSig:mean 	1.62
scalar Network.dyn_peer[215] 	lookupStabilitySig:mean 	0.30455518774688
scalar Network.dyn_peer[215] 	lookupHopsSig:mean 	15.4
scalar Network.dyn_peer[216] 	lookupTimeSig:mean 	1.8625
scalar Network.dyn_peer[216] 	lookupStabilitySig:mean 	0.87524881691206
scalar Network.dyn_peer[216] 	lookupHopsSig:mean 	17.75
scalar Network.dyn_peer[217] 	lookupTimeSig:mean 	3.65
scalar Network.dyn_peer[217] 	lookupStabilitySig:mean 	0.29718139022589
scalar Network.dyn_peer[217] 	lookupHopsSig:mean 	36
scalar Network.dyn_peer[218] 	lookupTimeSig:mean 	1.7166666666667
scalar Network.dyn_peer[218] 	lookupStabilitySig:mean 	0.46704912868639
scalar Network.dyn_peer[218] 	lookupHopsSig:mean 	16.333333333333
scalar Network.dyn_peer[219] 	lookupTimeSig:mean 	1.9888888888889
scalar Network.dyn_peer[219] 	lookupStabilitySig:mean 	0.79177031932502
scalar Network.dyn_peer[219] 	lookupHopsSig:mean 	19
scalar Network.dyn_peer[220] 	lookupTimeSig:mean 	1.6666666666667
scalar Network.dyn_peer[220] 	lookupStabilitySig:mean 	0.68537236501773
scalar Network.dyn_peer[220] 	lookupHopsSig:mean 	15.833333333333
scalar Network.dyn_peer[221] 	lookupTimeSig:mean 	3.2333333333333
scalar Network.dyn_peer[221] 	lookupStabilitySig:mean 	0.42137295504411
scalar Network.dyn_peer[221] 	lookupHopsSig:mean 	31.666666666667
scalar Network.dyn_peer[222] 	lookupTimeSig:mean 	1.8666666666667
scalar Network.dyn_peer[222] 	lookupStabilitySig:mean 	0.54087019277116
scalar Network.dyn_peer[222] 	lookupHopsSig:mean 	17.833333333333
scalar Network.dyn_peer[223] 	lookupTimeSig:mean 	1.5090909090909
scalar Network.dyn_peer[223] 	lookupStabilitySig:mean 	0.90903985665434
scalar Network.dyn_peer[223] 	lookupHopsSig:mean 	14.181818181818
scalar Network.dyn_peer[224] 	lookupTimeSig:mean 	2.725
scalar Network.dyn_peer[224] 	lookupStabilitySig:mean 	0.59819165244699
scalar Network.dyn_peer[224] 	lookupHopsSig:mean 	26.5
scalar Network.dyn_peer[225] 	lookupTimeSig:mean 	2
scalar Network.dyn_peer[225] 	lookupStabilitySig:mean 	0.66243017688394
scalar Network.dyn_peer[225] 	lookupHopsSig:mean 	19.2
scalar Network.dyn_peer[226] 	lookupTimeSig:mean 	1.4111111111111
scalar Network.dyn_peer[226] 	lookupStabilitySig:mean 	0.66099189087335
scalar Network.dyn_peer[226] 	lookupHopsSig:mean 	13.222222222222
scalar Network.dyn_peer[227] 	lookupTimeSig:mean 	1.7
scalar Network.dyn_peer[227] 	lookupStabilitySig:mean 	0.68519541124503
scalar Network.dyn_peer[227] 	lookupHopsSig:mean 	16.333333333333
scalar Network.dyn_peer[228] 	lookupTimeSig:mean 	1.3571428571429
scalar Network.dyn_peer[228] 	lookupStabilitySig:mean 	0.65192598477006
scalar Network.dyn_peer[228] 	lookupHopsSig:mean 	12.714285714286
scalar Network.dyn_peer[229] 	lookupTimeSig:mean 	1.9142857142857
scalar Network.dyn_peer[229] 	lookupStabilitySig:mean 	0.7502989717094
scalar Network.dyn_peer[229] 	lookupHopsSig:mean 	18.285714285714
scalar Network.dyn_peer[230] 	lookupTimeSig:mean 	2.25
scalar Network.dyn_peer[230] 	lookupStabilitySig:mean 	0.88447775272653
scalar Network.dyn_peer[230] 	lookupHopsSig:mean 	21.75
scalar Network.dyn_peer[231] 	lookupTimeSig:mean 	1.6666666666667
scalar Network.dyn_peer[231] 	lookupStabilitySig:mean 	0.69282068300527
scalar Network.dyn_peer[231] 	lookupHopsSig:mean 	15.833333333333
scalar Network.dyn_peer[232] 	lookupTimeSig:mean 	1.5
scalar Network.dyn_peer[232] 	lookupStabilitySig:mean 	0.38481183039645
scalar Network.dyn_peer[232] 	lookupHopsSig:mean 	14.333333333333
scalar Network.dyn_peer[233] 	lookupTimeSig:mean 	1.6
scalar Network.dyn_peer[233] 	lookupStabilitySig:mean 	0.38067788258195
scalar Network.dyn_peer[233] 	lookupHopsSig:mean 	15.25
scalar Network.dyn_peer[234] 	lookupTimeSig:mean 	1.4375
scalar Network.dyn_peer[234] 	lookupStabilitySig:mean 	0.85416244593216
scalar Network.dyn_peer[234] 	lookupHopsSig:mean 	13.5
scalar Network.dyn_peer[235] 	lookupTimeSig:mean 	1.975
scalar Network.dyn_peer[235] 	lookupStabilitySig:mean 	0.94946546081337
scalar Network.dyn_peer[235] 	lookupHopsSig:mean 	18.875
scalar Network.dyn_peer[236] 	lookupTimeSig:mean 	1.1
scalar Network.dyn_peer[236] 	lookupStabilitySig:mean 	0.68269171698817
scalar Network.dyn_peer[236] 	lookupHopsSig:mean 	10.142857142857
scalar Network.dyn_peer[237] 	lookupTimeSig:mean 	3.45
scalar Network.dyn_peer[237] 	lookupStabilitySig:mean 	0.5488311140798
scalar Network.dyn_peer[237] 	lookupHopsSig:mean 	33.75
scalar Network.dyn_peer[238] 	lookupTimeSig:mean 	1.6285714285714
scalar Network.dyn_peer[238] 	lookupStabilitySig:mean 	0.59662592477564
scalar Network.dyn_peer[238] 	lookupHopsSig:mean 	15.428571428571
scalar Network.dyn_peer[239] 	lookupTimeSig:mean 	1.74
scalar Network.dyn_peer[239] 	lookupStabilitySig:mean 	0.84834321225062
scalar Network.dyn_peer[239] 	lookupHopsSig:mean 	16.5
scalar Network.dyn_peer[240] 	lookupTimeSig:mean 	1.48
scalar Network.dyn_peer[240] 	lookupStabilitySig:mean 	0.41957206726074
scalar Network.dyn_peer[240] 	lookupHopsSig:mean 	14
scalar Network.dyn_peer[241] 	lookupTimeSig:mean 	2.04
scalar Network.dyn_peer[241] 	lookupStabilitySig:mean 	0.43469612076879
scalar Network.dyn_peer[241] 	lookupHopsSig:mean 	19.6
scalar Network.dyn_peer[242] 	lookupTimeSig:mean 	1.9818181818182
scalar Network.dyn_peer[242] 	lookupStabilitySig:mean 	0.7628291350874
scalar Network.dyn_peer[242] 	lookupHopsSig:mean 	18.909090909091
scalar Network.dyn_peer[243] 	lookupTimeSig:mean 	1.725
scalar Network.dyn_peer[243] 	lookupStabilitySig:mean 	0.88345752231544
scalar Network.dyn_peer[243] 	lookupHopsSig:mean 	16.375
scalar Network.dyn_peer[244] 	lookupTimeSig:mean 	2.875
scalar Network.dyn_peer[244] 	lookupStabilitySig:mean 	0.43263956345618
scalar Network.dyn_peer[244] 	lookupHopsSig:mean 	28
scalar Network.dyn_peer[245] 	lookupTimeSig:mean 	1.6111111111111
scalar Network.dyn_peer[245] 	lookupStabilitySig:mean 	0.80392487305734
scalar Network.dyn_peer[245] 	lookupHopsSig:mean 	15.222222222222
scalar Network.dyn_peer[246] 	lookupTimeSig:mean 	1.3181818181818
scalar Network.dyn_peer[246] 	lookupStabilitySig:mean 	0.86886104924435
scalar Network.dyn_peer[246] 	lookupHopsSig:mean 	12.272727272727
scalar Network.dyn_peer[247] 	lookupTimeSig:mean 	0.76
scalar Network.dyn_peer[247] 	lookupStabilitySig:mean 	0.37267650961876
scalar Network.dyn_peer[247] 	lookupHopsSig:mean 	6.8
scalar Network.dyn_peer[248] 	lookupTimeSig:mean 	2.6333333333333
scalar Network.dyn_peer[248] 	lookupStabilitySig:mean 	0.71717584505677
scalar Network.dyn_peer[248] 	lookupHopsSig:mean 	25.666666666667
scalar Network.dyn_peer[249] 	lookupTimeSig:mean 	1.23
scalar Network.dyn_peer[249] 	lookupStabilitySig:mean 	0.88128930162638
scalar Network.dyn_peer[249] 	lookupHopsSig:mean 	11.4
scalar Network.dyn_peer[250] 	lookupTimeSig:mean 	1.6571428571429
scalar Network.dyn_peer[250] 	lookupStabilitySig:mean 	0.64698528910854
scalar Network.dyn_peer[250] 	lookupHopsSig:mean 	15.714285714286
scalar Network.dyn_peer[251] 	lookupTimeSig:mean 	2.32
scalar Network.dyn_peer[251] 	lookupStabilitySig:mean 	0.75047894455492
scalar Network.dyn_peer[251] 	lookupHopsSig:mean 	22.4
scalar Network.dyn_peer[252] 	lookupTimeSig:mean 	1.7333333333333
scalar Network.dyn_peer[252] 	lookupStabilitySig:mean 	0.8352920251588
scalar Network.dyn_peer[252] 	lookupHopsSig:mean 	16.5
scalar Network.dyn_peer[253] 	lookupTimeSig:mean 	1.8375
scalar Network.dyn_peer[253] 	lookupStabilitySig:mean 	0.67981932824478
scalar Network.dyn_peer[253] 	lookupHopsSig:mean 	17.5
scalar Network.dyn_peer[254] 	lookupTimeSig:mean 	1.425
scalar Network.dyn_peer[254] 	lookupStabilitySig:mean 	0.68161493726075
scalar Network.dyn_peer[254] 	lookupHopsSig:mean 	13.5
scalar Network.dyn_peer[255] 	lookupTimeSig:mean 	2.22
scalar Network.dyn_peer[255] 	lookupStabilitySig:mean 	0.47051369398832
scalar Network.dyn_peer[255] 	lookupHopsSig:mean 	21.4
scalar Network.dyn_peer[256] 	lookupTimeSig:mean 	2.275
scalar Network.dyn_peer[256] 	lookupStabilitySig:mean 	0.54819187708199
scalar Network.dyn_peer[256] 	lookupHopsSig:mean 	22
scalar Network.dyn_peer[257] 	lookupTimeSig:mean 	2.45
scalar Network.dyn_peer[257] 	lookupStabilitySig:mean 	0.85817547980696
scalar Network.dyn_peer[257] 	lookupHopsSig:mean 	23.75
scalar Network.dyn_peer[258] 	lookupTimeSig:mean 	2.0333333333333
scalar Network.dyn_peer[258] 	lookupStabilitySig:mean 	0.49481880416473
scalar Network.dyn_peer[258] 	lookupHopsSig:mean 	19.666666666667
scalar Network.dyn_peer[259] 	lookupTimeSig:mean 	2.1571428571429
scalar Network.dyn_peer[259] 	lookupStabilitySig:mean 	0.83529539259949
scalar Network.dyn_peer[259] 	lookupHopsSig:mean 	20.714285714286
scalar Network.dyn_peer[260] 	lookupTimeSig:mean 	1.6625
scalar Network.dyn_peer[260] 	lookupStabilitySig:mean 	0.7785233653558
scalar Network.dyn_peer[260] 	lookupHopsSig:mean 	15.75
scalar Network.dyn_peer[261] 	lookupTimeSig:mean 	1.775
scalar Network.dyn_peer[261] 	lookupStabilitySig:mean 	0.892447647464
scalar Network.dyn_peer[261] 	lookupHopsSig:mean 	16.875
scalar Network.dyn_peer[262] 	lookupTimeSig:mean 	1.88
scalar Network.dyn_peer[262] 	lookupStabilitySig:mean 	0.49394085574895
scalar Network.dyn_peer[262] 	lookupHopsSig:mean 	18
scalar Network.dyn_peer[263] 	lookupTimeSig:mean 	1.9333333333333
scalar Network.dyn_peer[263] 	lookupStabilitySig:mean 	0.66497372090816
scalar Network.dyn_peer[263] 	lookupHopsSig:mean 	18.666666666667
scalar Network.dyn_peer[264] 	lookupTimeSig:mean 	1.4
scalar Network.dyn_peer[264] 	lookupStabilitySig:mean 	0.73909973244493
scalar Network.dyn_peer[264] 	lookupHopsSig:mean 	13.166666666667
scalar Network.dyn_peer[265] 	lookupTimeSig:mean 	2.3
scalar Network.dyn_peer[265] 	lookupStabilitySig:mean 	0.88997203199607
scalar Network.dyn_peer[265] 	lookupHopsSig:mean 	22.111111111111
scalar Network.dyn_peer[266] 	lookupTimeSig:mean 	1.6777777777778
scalar Network.dyn_peer[266] 	lookupStabilitySig:mean 	0.81424727373653
scalar Network.dyn_peer[266] 	lookupHopsSig:mean 	15.888888888889
scalar Network.dyn_peer[267] 	lookupTimeSig:mean 	0.86
scalar Network.dyn_peer[267] 	lookupStabilitySig:mean 	0.43142856061459
scalar Network.dyn_peer[267] 	lookupHopsSig:mean 	7.8
scalar Network.dyn_peer[268] 	lookupTimeSig:mean 	1.7166666666667
scalar Network.dyn_peer[268] 	lookupStabilitySig:mean 	0.86181641649455
scalar Network.dyn_peer[268] 	lookupHopsSig:mean 	16.25
scalar Network.dyn_peer[269] 	lookupTimeSig:mean 	1.8
scalar Network.dyn_peer[269] 	lookupStabilitySig:mean 	0.90091331433505
scalar Network.dyn_peer[269] 	lookupHopsSig:mean 	17.2
scalar Network.dyn_peer[270] 	lookupTimeSig:mean 	2.65
scalar Network.dyn_peer[270] 	lookupStabilitySig:mean 	0.17391301691532
scalar Network.dyn_peer[270] 	lookupHopsSig:mean 	26
scalar Network.dyn_peer[271] 	lookupTimeSig:mean 	2.325
scalar Network.dyn_peer[271] 	lookupStabilitySig:mean 	0.88662662694696
scalar Network.dyn_peer[271] 	lookupHopsSig:mean 	22.5
scalar Network.dyn_peer[272] 	lookupTimeSig:mean 	2.3
scalar Network.dyn_peer[272] 	lookupStabilitySig:mean 	0.51731870509684
scalar Network.dyn_peer[272] 	lookupHopsSig:mean 	22.25
scalar Network.dyn_peer[273] 	lookupTimeSig:mean 	1.6
scalar Network.dyn_peer[273] 	lookupStabilitySig:mean 	0.75609843980055
scalar Network.dyn_peer[273] 	lookupHopsSig:mean 	15.125
scalar Network.dyn_peer[274] 	lookupTimeSig:mean 	1.8
scalar Network.dyn_peer[274] 	lookupStabilitySig:mean 	0.84921379139026
scalar Network.dyn_peer[274] 	lookupHopsSig:mean 	17.166666666667
scalar Network.dyn_peer[275] 	lookupTimeSig:mean 	1.1272727272727
scalar Network.dyn_peer[275] 	lookupStabilitySig:mean 	0.96025734509087
scalar Network.dyn_peer[275] 	lookupHopsSig:mean 	10.363636363636
scalar Network.dyn_peer[276] 	lookupTimeSig:mean 	2.5
scalar Network.dyn_peer[276] 	lookupStabilitySig:mean 	0.64700853638351
scalar Network.dyn_peer[276] 	lookupHopsSig:mean 	24.5
scalar Network.dyn_peer[277] 	lookupTimeSig:mean 	1.25
scalar Network.dyn_peer[277] 	lookupStabilitySig:mean 	0.29593132995069
scalar Network.dyn_peer[277] 	lookupHopsSig:mean 	11.75
scalar Network.dyn_peer[278] 	lookupTimeSig:mean 	1.9
scalar Network.dyn_peer[278] 	lookupStabilitySig:mean 	0.28413173556328
scalar Network.dyn_peer[278] 	lookupHopsSig:mean 	18.333333333333
scalar Network.dyn_peer[279] 	lookupTimeSig:mean 	1.8875
scalar Network.dyn_peer[279] 	lookupStabilitySig:mean 	0.793635591981
scalar Network.dyn_peer[279] 	lookupHopsSig:mean 	18
scalar Network.dyn_peer[280] 	lookupTimeSig:mean 	2
scalar Network.dyn_peer[280] 	lookupStabilitySig:mean 	0.61204714328051
scalar Network.dyn_peer[280] 	lookupHopsSig:mean 	19.333333333333
scalar Network.dyn_peer[281] 	lookupTimeSig:mean 	1.04
scalar Network.dyn_peer[281] 	lookupStabilitySig:mean 	0.31714129298925
scalar Network.dyn_peer[281] 	lookupHopsSig:mean 	9.6
scalar Network.dyn_peer[282] 	lookupTimeSig:mean 	0.98
scalar Network.dyn_peer[282] 	lookupStabilitySig:mean 	0.48845626935363
scalar Network.dyn_peer[282] 	lookupHopsSig:mean 	9
scalar Network.dyn_peer[283] 	lookupTimeSig:mean 	1.2166666666667
scalar Network.dyn_peer[283] 	lookupStabilitySig:mean 	0.78183842706494
scalar Network.dyn_peer[283] 	lookupHopsSig:mean 	11.25
scalar Network.dyn_peer[284] 	lookupTimeSig:mean 	1.8222222222222
scalar Network.dyn_peer[284] 	lookupStabilitySig:mean 	0.90485975208382
scalar Network.dyn_peer[284] 	lookupHopsSig:mean 	17.333333333333
scalar Network.dyn_peer[285] 	lookupTimeSig:mean 	2.225
scalar Network.dyn_peer[285] 	lookupStabilitySig:mean 	0.2857947666198
scalar Network.dyn_peer[285] 	lookupHopsSig:mean 	21.5
scalar Network.dyn_peer[286] 	lookupTimeSig:mean 	1.6285714285714
scalar Network.dyn_peer[286] 	lookupStabilitySig:mean 	0.62211837087359
scalar Network.dyn_peer[286] 	lookupHopsSig:mean 	15.428571428571
scalar Network.dyn_peer[287] 	lookupTimeSig:mean 	1.4555555555556
scalar Network.dyn_peer[287] 	lookupStabilitySig:mean 	0.67754848746376
scalar Network.dyn_peer[287] 	lookupHopsSig:mean 	13.666666666667
scalar Network.dyn_peer[288] 	lookupTimeSig:mean 	2.5666666666667
scalar Network.dyn_peer[288] 	lookupStabilitySig:mean 	0.60634981592496
scalar Network.dyn_peer[288] 	lookupHopsSig:mean 	25
scalar Network.dyn_peer[289] 	lookupTimeSig:mean 	1.14
scalar Network.dyn_peer[289] 	lookupStabilitySig:mean 	0.48811497688293
scalar Network.dyn_peer[289] 	lookupHopsSig:mean 	10.6
scalar Network.dyn_peer[290] 	lookupTimeSig:mean 	2.05
scalar Network.dyn_peer[290] 	lookupStabilitySig:mean 	0.54011042509228
scalar Network.dyn_peer[290] 	lookupHopsSig:mean 	19.75
scalar Network.dyn_peer[291] 	lookupTimeSig:mean 	1.625
scalar Network.dyn_peer[291] 	lookupStabilitySig:mean 	0.411977421958
scalar Network.dyn_peer[291] 	lookupHopsSig:mean 	15.5
scalar Network.dyn_peer[292] 	lookupTimeSig:mean 	0.96
scalar Network.dyn_peer[292] 	lookupStabilitySig:mean 	0.38697951361537
scalar Network.dyn_peer[292] 	lookupHopsSig:mean 	8.8
scalar Network.dyn_peer[293] 	lookupTimeSig:mean 	2.1
scalar Network.dyn_peer[293] 	lookupStabilitySig:mean 	0.82991854349772
scalar Network.dyn_peer[293] 	lookupHopsSig:mean 	20.333333333333
scalar Network.dyn_peer[294] 	lookupTimeSig:mean 	1.9142857142857
scalar Network.dyn_peer[294] 	lookupStabilitySig:mean 	0.90441946059998
scalar Network.dyn_peer[294] 	lookupHopsSig:mean 	18.285714285714
scalar Network.dyn_peer[295] 	lookupTimeSig:mean 	2.1625
scalar Network.dyn_peer[295] 	lookupStabilitySig:mean 	0.94641864206642
scalar Network.dyn_peer[295] 	lookupHopsSig:mean 	20.75
scalar Network.dyn_peer[296] 	lookupTimeSig:mean 	2.75
scalar Network.dyn_peer[296] 	lookupStabilitySig:mean 	0.72738863411359
scalar Network.dyn_peer[296] 	lookupHopsSig:mean 	26.625
scalar Network.dyn_peer[297] 	lookupTimeSig:mean 	1.975
scalar Network.dyn_peer[297] 	lookupStabilitySig:mean 	0.60642352048308
scalar Network.dyn_peer[297] 	lookupHopsSig:mean 	19
scalar Network.dyn_peer[298] 	lookupTimeSig:mean 	3.14
scalar Network.dyn_peer[298] 	lookupStabilitySig:mean 	0.88950309045613
scalar Network.dyn_peer[298] 	lookupHopsSig:mean 	30.6
scalar Network.dyn_peer[299] 	lookupTimeSig:mean 	2.0222222222222
scalar Network.dyn_peer[299] 	lookupStabilitySig:mean 	0.8904202753264
scalar Network.dyn_peer[299] 	lookupHopsSig:mean 	19.333333333333
scalar Network.dyn_peer[300] 	lookupTimeSig:mean 	2.75
scalar Network.dyn_peer[300] 	lookupStabilitySig:mean 	0.76564990403131
scalar Network.dyn_peer[300] 	lookupHopsSig:mean 	26.75
scalar Network.dyn_peer[301] 	lookupTimeSig:mean 	2.58
scalar Network.dyn_peer[301] 	lookupStabilitySig:mean 	0.89486707001925
scalar Network.dyn_peer[301] 	lookupHopsSig:mean 	25
scalar Network.dyn_peer[302] 	lookupTimeSig:mean 	1.45
scalar Network.dyn_peer[302] 	lookupStabilitySig:mean 	0.66005191172007
scalar Network.dyn_peer[302] 	lookupHopsSig:mean 	13.625
scalar Network.dyn_peer[303] 	lookupTimeSig:mean 	1.7571428571429
scalar Network.dyn_peer[303] 	lookupStabilitySig:mean 	0.70324903141175
scalar Network.dyn_peer[303] 	lookupHopsSig:mean 	16.714285714286
scalar Network.dyn_peer[304] 	lookupTimeSig:mean 	3.14
scalar Network.dyn_peer[304] 	lookupStabilitySig:mean 	0.92148255892098
scalar Network.dyn_peer[304] 	lookupHopsSig:mean 	30.6
scalar Network.dyn_peer[305] 	lookupTimeSig:mean 	1.9
scalar Network.dyn_peer[305] 	lookupStabilitySig:mean 	0.5730434641242
scalar Network.dyn_peer[305] 	lookupHopsSig:mean 	18.2
scalar Network.dyn_peer[306] 	lookupTimeSig:mean 	1.4444444444444
scalar Network.dyn_peer[306] 	lookupStabilitySig:mean 	0.77218060774936
scalar Network.dyn_peer[306] 	lookupHopsSig:mean 	13.555555555556
scalar Network.dyn_peer[307] 	lookupTimeSig:mean 	2.26
scalar Network.dyn_peer[307] 	lookupStabilitySig:mean 	0.88221421912313
scalar Network.dyn_peer[307] 	lookupHopsSig:mean 	21.8
scalar Network.dyn_peer[308] 	lookupTimeSig:mean 	1.7166666666667
scalar Network.dyn_peer[308] 	lookupStabilitySig:mean 	0.5952842257296
scalar Network.dyn_peer[308] 	lookupHopsSig:mean 	16.333333333333
scalar Network.dyn_peer[309] 	lookupTimeSig:mean 	2.35
scalar Network.dyn_peer[309] 	lookupStabilitySig:mean 	0.7952333575425
scalar Network.dyn_peer[309] 	lookupHopsSig:mean 	22.666666666667
scalar Network.dyn_peer[310] 	lookupTimeSig:mean 	2.4
scalar Network.dyn_peer[310] 	lookupStabilitySig:mean 	0.62151855975389
scalar Network.dyn_peer[310] 	lookupHopsSig:mean 	23.5
scalar Network.dyn_peer[311] 	lookupTimeSig:mean 	1.4615384615385
scalar Network.dyn_peer[311] 	lookupStabilitySig:mean 	0.91818707873328
scalar Network.dyn_peer[311] 	lookupHopsSig:mean 	13.692307692308
scalar Network.dyn_peer[312] 	lookupTimeSig:mean 	1.675
scalar Network.dyn_peer[312] 	lookupStabilitySig:mean 	0.55566054023802
scalar Network.dyn_peer[312] 	lookupHopsSig:mean 	16
scalar Network.dyn_peer[313] 	lookupTimeSig:mean 	2.1833333333333
scalar Network.dyn_peer[313] 	lookupStabilitySig:mean 	0.92940286174417
scalar Network.dyn_peer[313] 	lookupHopsSig:mean 	21
scalar Network.dyn_peer[314] 	lookupTimeSig:mean 	0.83333333333333
scalar Network.dyn_peer[314] 	lookupStabilitySig:mean 	0.069444457689921
scalar Network.dyn_peer[314] 	lookupHopsSig:mean 	7.6666666666667
scalar Network.dyn_peer[315] 	lookupTimeSig:mean 	2.1
scalar Network.dyn_peer[315] 	lookupStabilitySig:mean 	0.62909515295178
scalar Network.dyn_peer[315] 	lookupHopsSig:mean 	20.25
scalar Network.dyn_peer[316] 	lookupTimeSig:mean 	1.5428571428571
scalar Network.dyn_peer[316] 	lookupStabilitySig:mean 	0.96567956760659
scalar Network.dyn_peer[316] 	lookupHopsSig:mean 	14.5
scalar Network.dyn_peer[317] 	lookupTimeSig:mean 	2.6
scalar Network.dyn_peer[317] 	lookupStabilitySig:mean 	0.72129050083458
scalar Network.dyn_peer[317] 	lookupHopsSig:mean 	25.25
scalar Network.dyn_peer[318] 	lookupTimeSig:mean 	1.65
scalar Network.dyn_peer[318] 	lookupStabilitySig:mean 	0.36358541809022
scalar Network.dyn_peer[318] 	lookupHopsSig:mean 	15.75
scalar Network.dyn_peer[319] 	lookupTimeSig:mean 	4.4
scalar Network.dyn_peer[319] 	lookupStabilitySig:mean 	0.91597788284222
scalar Network.dyn_peer[319] 	lookupHopsSig:mean 	43.333333333333
scalar Network.dyn_peer[320] 	lookupTimeSig:mean 	1.875
scalar Network.dyn_peer[320] 	lookupStabilitySig:mean 	0.53118035313673
scalar Network.dyn_peer[320] 	lookupHopsSig:mean 	18
scalar Network.dyn_peer[321] 	lookupTimeSig:mean 	2.26
scalar Network.dyn_peer[321] 	lookupStabilitySig:mean 	0.51640311442316
scalar Network.dyn_peer[321] 	lookupHopsSig:mean 	21.8
scalar Network.dyn_peer[322] 	lookupTimeSig:mean 	2.68
scalar Network.dyn_peer[322] 	lookupStabilitySig:mean 	0.89781584274024
scalar Network.dyn_peer[322] 	lookupHopsSig:mean 	26
scalar Network.dyn_peer[323] 	lookupTimeSig:mean 	2.1714285714286
scalar Network.dyn_peer[323] 	lookupStabilitySig:mean 	0.92615057754197
scalar Network.dyn_peer[323] 	lookupHopsSig:mean 	20.857142857143
scalar Network.dyn_peer[324] 	lookupTimeSig:mean 	2.3333333333333
scalar Network.dyn_peer[324] 	lookupStabilitySig:mean 	0.68836649258931
scalar Network.dyn_peer[324] 	lookupHopsSig:mean 	22.666666666667
scalar Network.dyn_peer[325] 	lookupTimeSig:mean 	1.9285714285714
scalar Network.dyn_peer[325] 	lookupStabilitySig:mean 	0.94443173187652
scalar Network.dyn_peer[325] 	lookupHopsSig:mean 	18.428571428571
scalar Network.dyn_peer[326] 	lookupTimeSig:mean 	1.4333333333333
scalar Network.dyn_peer[326] 	lookupStabilitySig:mean 	0.91966246244394
scalar Network.dyn_peer[326] 	lookupHopsSig:mean 	13.444444444444
scalar Network.dyn_peer[327] 	lookupTimeSig:mean 	1.88
scalar Network.dyn_peer[327] 	lookupStabilitySig:mean 	0.48572318665683
scalar Network.dyn_peer[327] 	lookupHopsSig:mean 	18
scalar Network.dyn_peer[328] 	lookupTimeSig:mean 	1.9333333333333
scalar Network.dyn_peer[328] 	lookupStabilitySig:mean 	0.27303240199884
scalar Network.dyn_peer[328] 	lookupHopsSig:mean 	18.666666666667
scalar Network.dyn_peer[329] 	lookupTimeSig:mean 	1.7
scalar Network.dyn_peer[329] 	lookupStabilitySig:mean 	0.54069630227362
scalar Network.dyn_peer[329] 	lookupHopsSig:mean 	16.166666666667
scalar Network.dyn_peer[330] 	lookupTimeSig:mean 	1.975
scalar Network.dyn_peer[330] 	lookupStabilitySig:mean 	0.67155592888594
scalar Network.dyn_peer[330] 	lookupHopsSig:mean 	19
scalar Network.dyn_peer[331] 	lookupTimeSig:mean 	1.86
scalar Network.dyn_peer[331] 	lookupStabilitySig:mean 	0.81025609187782
scalar Network.dyn_peer[331] 	lookupHopsSig:mean 	17.8
scalar Network.dyn_peer[332] 	lookupTimeSig:mean 	2.475
scalar Network.dyn_peer[332] 	lookupStabilitySig:mean 	0.73252707626671
scalar Network.dyn_peer[332] 	lookupHopsSig:mean 	24
scalar Network.dyn_peer[333] 	lookupTimeSig:mean 	1.6333333333333
scalar Network.dyn_peer[333] 	lookupStabilitySig:mean 	0.85726982533621
scalar Network.dyn_peer[333] 	lookupHopsSig:mean 	15.5
scalar Network.dyn_peer[334] 	lookupTimeSig:mean 	2.1375
scalar Network.dyn_peer[334] 	lookupStabilitySig:mean 	0.88379485587939
scalar Network.dyn_peer[334] 	lookupHopsSig:mean 	20.5
scalar Network.dyn_peer[335] 	lookupTimeSig:mean 	1.7142857142857
scalar Network.dyn_peer[335] 	lookupStabilitySig:mean 	0.85362132119813
scalar Network.dyn_peer[335] 	lookupHopsSig:mean 	16.285714285714
scalar Network.dyn_peer[336] 	lookupTimeSig:mean 	1.8375
scalar Network.dyn_peer[336] 	lookupStabilitySig:mean 	0.9697985004168
scalar Network.dyn_peer[336] 	lookupHopsSig:mean 	17.4375
scalar Network.dyn_peer[337] 	lookupTimeSig:mean 	1.76
scalar Network.dyn_peer[337] 	lookupStabilitySig:mean 	0.40538489129394
scalar Network.dyn_peer[337] 	lookupHopsSig:mean 	16.8
scalar Network.dyn_peer[338] 	lookupTimeSig:mean 	2.2571428571429
scalar Network.dyn_peer[338] 	lookupStabilitySig:mean 	0.78246060545955
scalar Network.dyn_peer[338] 	lookupHopsSig:mean 	21.714285714286
scalar Network.dyn_peer[339] 	lookupTimeSig:mean 	2.44
scalar Network.dyn_peer[339] 	lookupStabilitySig:mean 	0.9138155464083
scalar Network.dyn_peer[339] 	lookupHopsSig:mean 	23.6
scalar Network.dyn_peer[340] 	lookupTimeSig:mean 	2.7833333333333
scalar Network.dyn_peer[340] 	lookupStabilitySig:mean 	0.87694237614051
scalar Network.dyn_peer[340] 	lookupHopsSig:mean 	27
scalar Network.dyn_peer[341] 	lookupTimeSig:mean 	3.45
scalar Network.dyn_peer[341] 	lookupStabilitySig:mean 	-0.24521940201521
scalar Network.dyn_peer[341] 	lookupHopsSig:mean 	34
scalar Network.dyn_peer[342] 	lookupTimeSig:mean 	1.45
scalar Network.dyn_peer[342] 	lookupStabilitySig:mean 	0.33219990925863
scalar Network.dyn_peer[342] 	lookupHopsSig:mean 	13.75
scalar Network.dyn_peer[343] 	lookupTimeSig:mean 	2.5
scalar Network.dyn_peer[343] 	lookupStabilitySig:mean 	0.46658925637603
scalar Network.dyn_peer[343] 	lookupHopsSig:mean 	24.2
scalar Network.dyn_peer[344] 	lookupTimeSig:mean 	2.6
scalar Network.dyn_peer[344] 	lookupStabilitySig:mean 	0.92914525307715
scalar Network.dyn_peer[344] 	lookupHopsSig:mean 	25.2
scalar Network.dyn_peer[345] 	lookupTimeSig:mean 	2.1111111111111
scalar Network.dyn_peer[345] 	lookupStabilitySig:mean 	0.85493124739474
scalar Network.dyn_peer[345] 	lookupHopsSig:mean 	20.222222222222
scalar Network.dyn_peer[346] 	lookupTimeSig:mean 	2.9
scalar Network.dyn_peer[346] 	lookupStabilitySig:mean 	0.90845598932356
scalar Network.dyn_peer[346] 	lookupHopsSig:mean 	28.25
scalar Network.dyn_peer[347] 	lookupTimeSig:mean 	3.95
scalar Network.dyn_peer[347] 	lookupStabilitySig:mean 	0.71604938060045
scalar Network.dyn_peer[347] 	lookupHopsSig:mean 	39
scalar Network.dyn_peer[348] 	lookupTimeSig:mean 	2.5333333333333
scalar Network.dyn_peer[348] 	lookupStabilitySig:mean 	0.20977333188057
scalar Network.dyn_peer[348] 	lookupHopsSig:mean 	24.666666666667
scalar Network.dyn_peer[349] 	lookupTimeSig:mean 	3.95
scalar Network.dyn_peer[349] 	lookupStabilitySig:mean 	-0.040769219398499
scalar Network.dyn_peer[349] 	lookupHopsSig:mean 	39
scalar Network.dyn_peer[350] 	lookupTimeSig:mean 	1.8333333333333
scalar Network.dyn_peer[350] 	lookupStabilitySig:mean 	0.8204322544237
scalar Network.dyn_peer[350] 	lookupHopsSig:mean 	17.5
scalar Network.dyn_peer[351] 	lookupTimeSig:mean 	2.7
scalar Network.dyn_peer[351] 	lookupStabilitySig:mean 	0.61905931681395
scalar Network.dyn_peer[351] 	lookupHopsSig:mean 	26.333333333333
scalar Network.dyn_peer[352] 	lookupTimeSig:mean 	1.92
scalar Network.dyn_peer[352] 	lookupStabilitySig:mean 	0.48036357462406
scalar Network.dyn_peer[352] 	lookupHopsSig:mean 	18.4
scalar Network.dyn_peer[353] 	lookupTimeSig:mean 	1.55
scalar Network.dyn_peer[353] 	lookupStabilitySig:mean 	0.85343650437426
scalar Network.dyn_peer[353] 	lookupHopsSig:mean 	14.625
scalar Network.dyn_peer[354] 	lookupTimeSig:mean 	2.1666666666667
scalar Network.dyn_peer[354] 	lookupStabilitySig:mean 	0.69148808717728
scalar Network.dyn_peer[354] 	lookupHopsSig:mean 	20.833333333333
scalar Network.dyn_peer[355] 	lookupTimeSig:mean 	1.6363636363636
scalar Network.dyn_peer[355] 	lookupStabilitySig:mean 	0.92231570268896
scalar Network.dyn_peer[355] 	lookupHopsSig:mean 	15.454545454545
scalar Network.dyn_peer[356] 	lookupTimeSig:mean 	3.6
scalar Network.dyn_peer[356] 	lookupStabilitySig:mean 	0.69426159312328
scalar Network.dyn_peer[356] 	lookupHopsSig:mean 	35.333333333333
scalar Network.dyn_peer[357] 	lookupTimeSig:mean 	1.8
scalar Network.dyn_peer[357] 	lookupStabilitySig:mean 	0.42956129213174
scalar Network.dyn_peer[357] 	lookupHopsSig:mean 	17.333333333333
scalar Network.dyn_peer[358] 	lookupTimeSig:mean 	3.5
scalar Network.dyn_peer[358] 	lookupStabilitySig:mean 	0.50370670855045
scalar Network.dyn_peer[358] 	lookupHopsSig:mean 	34.333333333333
scalar Network.dyn_peer[359] 	lookupTimeSig:mean 	4.05
scalar Network.dyn_peer[359] 	lookupStabilitySig:mean 	0.76269644871354
scalar Network.dyn_peer[359] 	lookupHopsSig:mean 	40
scalar Network.dyn_peer[360] 	lookupTimeSig:mean 	1.65
scalar Network.dyn_peer[360] 	lookupStabilitySig:mean 	0.52885961625725
scalar Network.dyn_peer[360] 	lookupHopsSig:mean 	15.75
scalar Network.dyn_peer[361] 	lookupTimeSig:mean 	1.3375
scalar Network.dyn_peer[361] 	lookupStabilitySig:mean 	0.68822417024057
scalar Network.dyn_peer[361] 	lookupHopsSig:mean 	12.5
scalar Network.dyn_peer[362] 	lookupTimeSig:mean 	1.9333333333333
scalar Network.dyn_peer[362] 	lookupStabilitySig:mean 	0.44166764120261
scalar Network.dyn_peer[362] 	lookupHopsSig:mean 	18.666666666667
scalar Network.dyn_peer[363] 	lookupTimeSig:mean 	1.05
scalar Network.dyn_peer[363] 	lookupStabilitySig:mean 	0.60811865267654
scalar Network.dyn_peer[363] 	lookupHopsSig:mean 	9.6666666666667
scalar Network.dyn_peer[364] 	lookupTimeSig:mean 	2.95
scalar Network.dyn_peer[364] 	lookupStabilitySig:mean 	0.8301138561219
scalar Network.dyn_peer[364] 	lookupHopsSig:mean 	28.75
scalar Network.dyn_peer[365] 	lookupTimeSig:mean 	1.1818181818182
scalar Network.dyn_peer[365] 	lookupStabilitySig:mean 	0.85289580993016
scalar Network.dyn_peer[365] 	lookupHopsSig:mean 	10.909090909091
scalar Network.dyn_peer[366] 	lookupTimeSig:mean 	1.84
scalar Network.dyn_peer[366] 	lookupStabilitySig:mean 	0.63839767798781
scalar Network.dyn_peer[366] 	lookupHopsSig:mean 	17.6
scalar Network.dyn_peer[367] 	lookupTimeSig:mean 	3.3
scalar Network.dyn_peer[367] 	lookupStabilitySig:mean 	0.77407402421037
scalar Network.dyn_peer[367] 	lookupHopsSig:mean 	32.333333333333
scalar Network.dyn_peer[368] 	lookupTimeSig:mean 	2.5
scalar Network.dyn_peer[368] 	lookupStabilitySig:mean 	0.712974563241
scalar Network.dyn_peer[368] 	lookupHopsSig:mean 	24.333333333333
scalar Network.dyn_peer[369] 	lookupTimeSig:mean 	1.3285714285714
scalar Network.dyn_peer[369] 	lookupStabilitySig:mean 	0.83595455783818
scalar Network.dyn_peer[369] 	lookupHopsSig:mean 	12.428571428571
scalar Network.dyn_peer[370] 	lookupTimeSig:mean 	2.175
scalar Network.dyn_peer[370] 	lookupStabilitySig:mean 	0.44850752130151
scalar Network.dyn_peer[370] 	lookupHopsSig:mean 	21
scalar Network.dyn_peer[371] 	lookupTimeSig:mean 	2.14
scalar Network.dyn_peer[371] 	lookupStabilitySig:mean 	0.90054433681071
scalar Network.dyn_peer[371] 	lookupHopsSig:mean 	20.6
scalar Network.dyn_peer[372] 	lookupTimeSig:mean 	2.78
scalar Network.dyn_peer[372] 	lookupStabilitySig:mean 	0.83794556576759
scalar Network.dyn_peer[372] 	lookupHopsSig:mean 	27
scalar Network.dyn_peer[373] 	lookupTimeSig:mean 	1.55
scalar Network.dyn_peer[373] 	lookupStabilitySig:mean 	0.60685213981196
scalar Network.dyn_peer[373] 	lookupHopsSig:mean 	14.666666666667
scalar Network.dyn_peer[374] 	lookupTimeSig:mean 	1.5
scalar Network.dyn_peer[374] 	lookupStabilitySig:mean 	0.16586538404226
scalar Network.dyn_peer[374] 	lookupHopsSig:mean 	14.5
scalar Network.dyn_peer[375] 	lookupTimeSig:mean 	1.6333333333333
scalar Network.dyn_peer[375] 	lookupStabilitySig:mean 	0.74410689622164
scalar Network.dyn_peer[375] 	lookupHopsSig:mean 	15.666666666667
scalar Network.dyn_peer[376] 	lookupTimeSig:mean 	2.0625
scalar Network.dyn_peer[376] 	lookupStabilitySig:mean 	0.91954223788343
scalar Network.dyn_peer[376] 	lookupHopsSig:mean 	19.75
scalar Network.dyn_peer[377] 	lookupTimeSig:mean 	1.4
scalar Network.dyn_peer[377] 	lookupStabilitySig:mean 	0.90736431974385
scalar Network.dyn_peer[377] 	lookupHopsSig:mean 	13.142857142857
scalar Network.dyn_peer[378] 	lookupTimeSig:mean 	1.4
scalar Network.dyn_peer[378] 	lookupStabilitySig:mean 	0.63184453298648
scalar Network.dyn_peer[378] 	lookupHopsSig:mean 	13.333333333333
scalar Network.dyn_peer[379] 	lookupTimeSig:mean 	1.0285714285714
scalar Network.dyn_peer[379] 	lookupStabilitySig:mean 	0.7415444973324
scalar Network.dyn_peer[379] 	lookupHopsSig:mean 	9.4285714285714
scalar Network.dyn_peer[380] 	lookupTimeSig:mean 	2.225
scalar Network.dyn_peer[380] 	lookupStabilitySig:mean 	0.78031684365124
scalar Network.dyn_peer[380] 	lookupHopsSig:mean 	21.5
scalar Network.dyn_peer[381] 	lookupTimeSig:mean 	1.98
scalar Network.dyn_peer[381] 	lookupStabilitySig:mean 	0.89054655898362
scalar Network.dyn_peer[381] 	lookupHopsSig:mean 	19
scalar Network.dyn_peer[382] 	lookupTimeSig:mean 	1.6666666666667
scalar Network.dyn_peer[382] 	lookupStabilitySig:mean 	0.83791912538517
scalar Network.dyn_peer[382] 	lookupHopsSig:mean 	15.777777777778
scalar Network.dyn_peer[383] 	lookupTimeSig:mean 	1.45
scalar Network.dyn_peer[383] 	lookupStabilitySig:mean 	0.40018794685602
scalar Network.dyn_peer[383] 	lookupHopsSig:mean 	13.75
scalar Network.dyn_peer[384] 	lookupTimeSig:mean 	0.95
scalar Network.dyn_peer[384] 	lookupStabilitySig:mean 	0.71682075411081
scalar Network.dyn_peer[384] 	lookupHopsSig:mean 	8.6666666666667
scalar Network.dyn_peer[385] 	lookupTimeSig:mean 	1.5571428571429
scalar Network.dyn_peer[385] 	lookupStabilitySig:mean 	0.73176951121007
scalar Network.dyn_peer[385] 	lookupHopsSig:mean 	14.714285714286
scalar Network.dyn_peer[386] 	lookupTimeSig:mean 	1.6909090909091
scalar Network.dyn_peer[386] 	lookupStabilitySig:mean 	0.92576267451725
scalar Network.dyn_peer[386] 	lookupHopsSig:mean 	16
scalar Network.dyn_peer[387] 	lookupTimeSig:mean 	2.02
scalar Network.dyn_peer[387] 	lookupStabilitySig:mean 	0.91053572595119
scalar Network.dyn_peer[387] 	lookupHopsSig:mean 	19.4
scalar Network.dyn_peer[388] 	lookupTimeSig:mean 	1.8090909090909
scalar Network.dyn_peer[388] 	lookupStabilitySig:mean 	0.94012164934115
scalar Network.dyn_peer[388] 	lookupHopsSig:mean 	17.181818181818
scalar Network.dyn_peer[389] 	lookupTimeSig:mean 	2.15
scalar Network.dyn_peer[389] 	lookupStabilitySig:mean 	0.93447051911304
scalar Network.dyn_peer[389] 	lookupHopsSig:mean 	20.666666666667
scalar Network.dyn_peer[390] 	lookupTimeSig:mean 	1.9
scalar Network.dyn_peer[390] 	lookupStabilitySig:mean 	0.43579044751823
scalar Network.dyn_peer[390] 	lookupHopsSig:mean 	18.25
scalar Network.dyn_peer[391] 	lookupTimeSig:mean 	1.2615384615385
scalar Network.dyn_peer[391] 	lookupStabilitySig:mean 	0.79428094260108
scalar Network.dyn_peer[391] 	lookupHopsSig:mean 	11.692307692308
scalar Network.dyn_peer[392] 	lookupTimeSig:mean 	2.2333333333333
scalar Network.dyn_peer[392] 	lookupStabilitySig:mean 	0.50101295113564
scalar Network.dyn_peer[392] 	lookupHopsSig:mean 	21.666666666667
scalar Network.dyn_peer[393] 	lookupTimeSig:mean 	1.75
scalar Network.dyn_peer[393] 	lookupStabilitySig:mean 	0.044444411993027
scalar Network.dyn_peer[393] 	lookupHopsSig:mean 	17
scalar Network.dyn_peer[394] 	lookupTimeSig:mean 	1.2333333333333
scalar Network.dyn_peer[394] 	lookupStabilitySig:mean 	0.18142207463582
scalar Network.dyn_peer[394] 	lookupHopsSig:mean 	11.666666666667
scalar Network.dyn_peer[395] 	lookupTimeSig:mean 	3.55
scalar Network.dyn_peer[395] 	lookupStabilitySig:mean 	0.44451952725649
scalar Network.dyn_peer[395] 	lookupHopsSig:mean 	35
scalar Network.dyn_peer[396] 	lookupTimeSig:mean 	3.1
scalar Network.dyn_peer[396] 	lookupStabilitySig:mean 	0.6976534028848
scalar Network.dyn_peer[396] 	lookupHopsSig:mean 	30.333333333333
scalar Network.dyn_peer[397] 	lookupTimeSig:mean 	1.7454545454545
scalar Network.dyn_peer[397] 	lookupStabilitySig:mean 	0.9433097421107
scalar Network.dyn_peer[397] 	lookupHopsSig:mean 	16.545454545455
scalar Network.dyn_peer[398] 	lookupTimeSig:mean 	2.925
scalar Network.dyn_peer[398] 	lookupStabilitySig:mean 	0.34043964277953
scalar Network.dyn_peer[398] 	lookupHopsSig:mean 	28.5
scalar Network.dyn_peer[399] 	lookupTimeSig:mean 	1.66
scalar Network.dyn_peer[399] 	lookupStabilitySig:mean 	0.43919397443533
scalar Network.dyn_peer[399] 	lookupHopsSig:mean 	15.8
scalar Network.dyn_peer[400] 	lookupTimeSig:mean 	1.425
scalar Network.dyn_peer[400] 	lookupStabilitySig:mean 	0.72118151467294
scalar Network.dyn_peer[400] 	lookupHopsSig:mean 	13.5
scalar Network.dyn_peer[401] 	lookupTimeSig:mean 	2.04
scalar Network.dyn_peer[401] 	lookupStabilitySig:mean 	0.83775790482759
scalar Network.dyn_peer[401] 	lookupHopsSig:mean 	19.5
scalar Network.dyn_peer[402] 	lookupTimeSig:mean 	1.50625
scalar Network.dyn_peer[402] 	lookupStabilitySig:mean 	0.97004068788374
scalar Network.dyn_peer[402] 	lookupHopsSig:mean 	14.125
scalar Network.dyn_peer[403] 	lookupTimeSig:mean 	2.475
scalar Network.dyn_peer[403] 	lookupStabilitySig:mean 	0.85466330032796
scalar Network.dyn_peer[403] 	lookupHopsSig:mean 	24
scalar Network.dyn_peer[404] 	lookupTimeSig:mean 	1.5714285714286
scalar Network.dyn_peer[404] 	lookupStabilitySig:mean 	0.84890210553671
scalar Network.dyn_peer[404] 	lookupHopsSig:mean 	14.857142857143
scalar Network.dyn_peer[405] 	lookupTimeSig:mean 	1.8571428571429
scalar Network.dyn_peer[405] 	lookupStabilitySig:mean 	0.89289024831461
scalar Network.dyn_peer[405] 	lookupHopsSig:mean 	17.714285714286
scalar Network.dyn_peer[406] 	lookupTimeSig:mean 	4.6666666666667
scalar Network.dyn_peer[406] 	lookupStabilitySig:mean 	0.713933515052
scalar Network.dyn_peer[406] 	lookupHopsSig:mean 	46
scalar Network.dyn_peer[407] 	lookupTimeSig:mean 	1.475
scalar Network.dyn_peer[407] 	lookupStabilitySig:mean 	0.42957652173936
scalar Network.dyn_peer[407] 	lookupHopsSig:mean 	14
scalar Network.dyn_peer[408] 	lookupTimeSig:mean 	1.1727272727273
scalar Network.dyn_peer[408] 	lookupStabilitySig:mean 	0.79776074792343
scalar Network.dyn_peer[408] 	lookupHopsSig:mean 	10.818181818182
scalar Network.dyn_peer[409] 	lookupTimeSig:mean 	4.05
scalar Network.dyn_peer[409] 	lookupStabilitySig:mean 	0.83285184204578
scalar Network.dyn_peer[409] 	lookupHopsSig:mean 	40
scalar Network.dyn_peer[410] 	lookupTimeSig:mean 	2.1
scalar Network.dyn_peer[410] 	lookupStabilitySig:mean 	0.8047125597174
scalar Network.dyn_peer[410] 	lookupHopsSig:mean 	20.166666666667
scalar Network.dyn_peer[411] 	lookupTimeSig:mean 	3.3
scalar Network.dyn_peer[411] 	lookupStabilitySig:mean 	0.70627488940954
scalar Network.dyn_peer[411] 	lookupHopsSig:mean 	32.333333333333
scalar Network.dyn_peer[412] 	lookupTimeSig:mean 	1.8428571428571
scalar Network.dyn_peer[412] 	lookupStabilitySig:mean 	0.78047187932368
scalar Network.dyn_peer[412] 	lookupHopsSig:mean 	17.571428571429
scalar Network.dyn_peer[413] 	lookupTimeSig:mean 	2.2285714285714
scalar Network.dyn_peer[413] 	lookupStabilitySig:mean 	0.721309983105
scalar Network.dyn_peer[413] 	lookupHopsSig:mean 	21.428571428571
scalar Network.dyn_peer[414] 	lookupTimeSig:mean 	1.8666666666667
scalar Network.dyn_peer[414] 	lookupStabilitySig:mean 	0.55659964432319
scalar Network.dyn_peer[414] 	lookupHopsSig:mean 	18
scalar Network.dyn_peer[415] 	lookupTimeSig:mean 	1.725
scalar Network.dyn_peer[415] 	lookupStabilitySig:mean 	0.75923904520459
scalar Network.dyn_peer[415] 	lookupHopsSig:mean 	16.375
scalar Network.dyn_peer[416] 	lookupTimeSig:mean 	3.4
scalar Network.dyn_peer[416] 	lookupStabilitySig:mean 	0.46856440603733
scalar Network.dyn_peer[416] 	lookupHopsSig:mean 	33.333333333333
scalar Network.dyn_peer[417] 	lookupTimeSig:mean 	1.3857142857143
scalar Network.dyn_peer[417] 	lookupStabilitySig:mean 	0.86796460869456
scalar Network.dyn_peer[417] 	lookupHopsSig:mean 	13
scalar Network.dyn_peer[418] 	lookupTimeSig:mean 	2.6
scalar Network.dyn_peer[418] 	lookupStabilitySig:mean 	0.88051119120792
scalar Network.dyn_peer[418] 	lookupHopsSig:mean 	25.125
scalar Network.dyn_peer[419] 	lookupTimeSig:mean 	1.64
scalar Network.dyn_peer[419] 	lookupStabilitySig:mean 	0.81902303928509
scalar Network.dyn_peer[419] 	lookupHopsSig:mean 	15.5
scalar Network.dyn_peer[420] 	lookupTimeSig:mean 	2.625
[...]
scalar Network.dyn_peer[894] 	lookupHopsSig:mean 	18.714285714286
scalar Network.dyn_peer[895] 	lookupTimeSig:mean 	2.125
scalar Network.dyn_peer[895] 	lookupStabilitySig:mean 	0.49696411006153
scalar Network.dyn_peer[895] 	lookupHopsSig:mean 	20.5
scalar Network.dyn_peer[896] 	lookupTimeSig:mean 	2.85
scalar Network.dyn_peer[896] 	lookupStabilitySig:mean 	0.37165897339582
scalar Network.dyn_peer[896] 	lookupHopsSig:mean 	28
scalar Network.dyn_peer[897] 	lookupTimeSig:mean 	1.32
scalar Network.dyn_peer[897] 	lookupStabilitySig:mean 	0.81900991313159
scalar Network.dyn_peer[897] 	lookupHopsSig:mean 	12.3
scalar Network.dyn_peer[898] 	lookupTimeSig:mean 	2.1
scalar Network.dyn_peer[898] 	lookupStabilitySig:mean 	0.85023760702461
scalar Network.dyn_peer[898] 	lookupHopsSig:mean 	20.25
scalar Network.dyn_peer[899] 	lookupTimeSig:mean 	4.45
scalar Network.dyn_peer[899] 	lookupStabilitySig:mean 	0.79766148328781
scalar Network.dyn_peer[899] 	lookupHopsSig:mean 	44
scalar Network.dyn_peer[900] 	lookupTimeSig:mean 	1.9777777777778
scalar Network.dyn_peer[900] 	lookupStabilitySig:mean 	0.77952845363567
scalar Network.dyn_peer[900] 	lookupHopsSig:mean 	18.888888888889
scalar Network.dyn_peer[901] 	lookupTimeSig:mean 	1.5
scalar Network.dyn_peer[901] 	lookupStabilitySig:mean 	0.81905180658214
scalar Network.dyn_peer[901] 	lookupHopsSig:mean 	14.125
scalar Network.dyn_peer[902] 	lookupTimeSig:mean 	1.82
scalar Network.dyn_peer[902] 	lookupStabilitySig:mean 	0.77734452299774
scalar Network.dyn_peer[902] 	lookupHopsSig:mean 	17.4
scalar Network.dyn_peer[903] 	lookupTimeSig:mean 	2.65
scalar Network.dyn_peer[903] 	lookupStabilitySig:mean 	0.64190704189241
scalar Network.dyn_peer[903] 	lookupHopsSig:mean 	25.75
scalar Network.dyn_peer[904] 	lookupTimeSig:mean 	2.9666666666667
scalar Network.dyn_peer[904] 	lookupStabilitySig:mean 	0.65330895036459
scalar Network.dyn_peer[904] 	lookupHopsSig:mean 	29
scalar Network.dyn_peer[905] 	lookupTimeSig:mean 	0.875
scalar Network.dyn_peer[905] 	lookupStabilitySig:mean 	0.53511903434992
scalar Network.dyn_peer[905] 	lookupHopsSig:mean 	8
scalar Network.dyn_peer[906] 	lookupTimeSig:mean 	1.7375
scalar Network.dyn_peer[906] 	lookupStabilitySig:mean 	0.94824360916391
scalar Network.dyn_peer[906] 	lookupHopsSig:mean 	16.5
scalar Network.dyn_peer[907] 	lookupTimeSig:mean 	2.6444444444444
scalar Network.dyn_peer[907] 	lookupStabilitySig:mean 	0.93316979137146
scalar Network.dyn_peer[907] 	lookupHopsSig:mean 	25.555555555556
scalar Network.dyn_peer[908] 	lookupTimeSig:mean 	2.175
scalar Network.dyn_peer[908] 	lookupStabilitySig:mean 	0.5950692538172
scalar Network.dyn_peer[908] 	lookupHopsSig:mean 	21
scalar Network.dyn_peer[909] 	lookupTimeSig:mean 	2.7666666666667
scalar Network.dyn_peer[909] 	lookupStabilitySig:mean 	0.89518565187852
scalar Network.dyn_peer[909] 	lookupHopsSig:mean 	27
scalar Network.dyn_peer[910] 	lookupTimeSig:mean 	2.975
scalar Network.dyn_peer[910] 	lookupStabilitySig:mean 	0.89287945767865
scalar Network.dyn_peer[910] 	lookupHopsSig:mean 	29
scalar Network.dyn_peer[911] 	lookupTimeSig:mean 	2.65
scalar Network.dyn_peer[911] 	lookupStabilitySig:mean 	0.64230771549046
scalar Network.dyn_peer[911] 	lookupHopsSig:mean 	25.75
scalar Network.dyn_peer[912] 	lookupTimeSig:mean 	1.4764705882353
scalar Network.dyn_peer[912] 	lookupStabilitySig:mean 	0.9523580176071
scalar Network.dyn_peer[912] 	lookupHopsSig:mean 	13.823529411765
scalar Network.dyn_peer[913] 	lookupTimeSig:mean 	2.9
scalar Network.dyn_peer[913] 	lookupStabilitySig:mean 	0.84267607145011
scalar Network.dyn_peer[913] 	lookupHopsSig:mean 	28.333333333333
scalar Network.dyn_peer[914] 	lookupTimeSig:mean 	1.9375
scalar Network.dyn_peer[914] 	lookupStabilitySig:mean 	0.93588821345475
scalar Network.dyn_peer[914] 	lookupHopsSig:mean 	18.5
scalar Network.dyn_peer[915] 	lookupTimeSig:mean 	1.7875
scalar Network.dyn_peer[915] 	lookupStabilitySig:mean 	0.90493034920655
scalar Network.dyn_peer[915] 	lookupHopsSig:mean 	17
scalar Network.dyn_peer[916] 	lookupTimeSig:mean 	1.2333333333333
scalar Network.dyn_peer[916] 	lookupStabilitySig:mean 	0.78390450656621
scalar Network.dyn_peer[916] 	lookupHopsSig:mean 	11.444444444444
scalar Network.dyn_peer[917] 	lookupTimeSig:mean 	2.125
scalar Network.dyn_peer[917] 	lookupStabilitySig:mean 	0.63236687332392
scalar Network.dyn_peer[917] 	lookupHopsSig:mean 	20.5
scalar Network.dyn_peer[918] 	lookupTimeSig:mean 	2.5666666666667
scalar Network.dyn_peer[918] 	lookupStabilitySig:mean 	0.54112315177917
scalar Network.dyn_peer[918] 	lookupHopsSig:mean 	25
scalar Network.dyn_peer[919] 	lookupTimeSig:mean 	1.9166666666667
scalar Network.dyn_peer[919] 	lookupStabilitySig:mean 	0.87378738013407
scalar Network.dyn_peer[919] 	lookupHopsSig:mean 	18.333333333333
scalar Network.dyn_peer[920] 	lookupTimeSig:mean 	2.4
scalar Network.dyn_peer[920] 	lookupStabilitySig:mean 	0.60762994363904
scalar Network.dyn_peer[920] 	lookupHopsSig:mean 	23.333333333333
scalar Network.dyn_peer[921] 	lookupTimeSig:mean 	1.9
scalar Network.dyn_peer[921] 	lookupStabilitySig:mean 	0.86930156089365
scalar Network.dyn_peer[921] 	lookupHopsSig:mean 	18.2
scalar Network.dyn_peer[922] 	lookupTimeSig:mean 	1.72
scalar Network.dyn_peer[922] 	lookupStabilitySig:mean 	0.82063262537122
scalar Network.dyn_peer[922] 	lookupHopsSig:mean 	16.3
scalar Network.dyn_peer[923] 	lookupTimeSig:mean 	2.16
scalar Network.dyn_peer[923] 	lookupStabilitySig:mean 	0.64750513955951
scalar Network.dyn_peer[923] 	lookupHopsSig:mean 	20.8
scalar Network.dyn_peer[924] 	lookupTimeSig:mean 	2.75
scalar Network.dyn_peer[924] 	lookupStabilitySig:mean 	0.23139156401157
scalar Network.dyn_peer[924] 	lookupHopsSig:mean 	27
scalar Network.dyn_peer[925] 	lookupTimeSig:mean 	1.5666666666667
scalar Network.dyn_peer[925] 	lookupStabilitySig:mean 	0.89922732179467
scalar Network.dyn_peer[925] 	lookupHopsSig:mean 	14.777777777778
scalar Network.dyn_peer[926] 	lookupTimeSig:mean 	1.9
scalar Network.dyn_peer[926] 	lookupStabilitySig:mean 	0.82054368632713
scalar Network.dyn_peer[926] 	lookupHopsSig:mean 	18.142857142857
scalar Network.dyn_peer[927] 	lookupTimeSig:mean 	1.74
scalar Network.dyn_peer[927] 	lookupStabilitySig:mean 	0.89873149851337
scalar Network.dyn_peer[927] 	lookupHopsSig:mean 	16.6
scalar Network.dyn_peer[928] 	lookupTimeSig:mean 	1.75
scalar Network.dyn_peer[928] 	lookupStabilitySig:mean 	0.35893009603024
scalar Network.dyn_peer[928] 	lookupHopsSig:mean 	17
scalar Network.dyn_peer[929] 	lookupTimeSig:mean 	1.5833333333333
scalar Network.dyn_peer[929] 	lookupStabilitySig:mean 	0.74828798820575
scalar Network.dyn_peer[929] 	lookupHopsSig:mean 	15
scalar Network.dyn_peer[930] 	lookupTimeSig:mean 	1.1
scalar Network.dyn_peer[930] 	lookupStabilitySig:mean 	0.85510357939215
scalar Network.dyn_peer[930] 	lookupHopsSig:mean 	10.090909090909
scalar Network.dyn_peer[931] 	lookupTimeSig:mean 	1.3125
scalar Network.dyn_peer[931] 	lookupStabilitySig:mean 	0.86876293853857
scalar Network.dyn_peer[931] 	lookupHopsSig:mean 	12.25
scalar Network.dyn_peer[932] 	lookupTimeSig:mean 	4.1
scalar Network.dyn_peer[932] 	lookupStabilitySig:mean 	0.86505682021379
scalar Network.dyn_peer[932] 	lookupHopsSig:mean 	40.5
scalar Network.dyn_peer[933] 	lookupTimeSig:mean 	1.7125
scalar Network.dyn_peer[933] 	lookupStabilitySig:mean 	0.95281517191324
scalar Network.dyn_peer[933] 	lookupHopsSig:mean 	16.25
scalar Network.dyn_peer[934] 	lookupTimeSig:mean 	2.7
scalar Network.dyn_peer[934] 	lookupStabilitySig:mean 	0.84638318605721
scalar Network.dyn_peer[934] 	lookupHopsSig:mean 	26.25
scalar Network.dyn_peer[935] 	lookupTimeSig:mean 	1.3833333333333
scalar Network.dyn_peer[935] 	lookupStabilitySig:mean 	0.77947498811409
scalar Network.dyn_peer[935] 	lookupHopsSig:mean 	13
scalar Network.dyn_peer[936] 	lookupTimeSig:mean 	1.4857142857143
scalar Network.dyn_peer[936] 	lookupStabilitySig:mean 	0.86225258439247
scalar Network.dyn_peer[936] 	lookupHopsSig:mean 	14
scalar Network.dyn_peer[937] 	lookupTimeSig:mean 	1.975
scalar Network.dyn_peer[937] 	lookupStabilitySig:mean 	0.81380377151072
scalar Network.dyn_peer[937] 	lookupHopsSig:mean 	19
scalar Network.dyn_peer[938] 	lookupTimeSig:mean 	1.91
scalar Network.dyn_peer[938] 	lookupStabilitySig:mean 	0.94020827133209
scalar Network.dyn_peer[938] 	lookupHopsSig:mean 	18.2
scalar Network.dyn_peer[939] 	lookupTimeSig:mean 	2.2142857142857
scalar Network.dyn_peer[939] 	lookupStabilitySig:mean 	0.91704407706857
scalar Network.dyn_peer[939] 	lookupHopsSig:mean 	21.285714285714
scalar Network.dyn_peer[940] 	lookupTimeSig:mean 	4.3
scalar Network.dyn_peer[940] 	lookupStabilitySig:mean 	0.81188637018204
scalar Network.dyn_peer[940] 	lookupHopsSig:mean 	42.5
scalar Network.dyn_peer[941] 	lookupTimeSig:mean 	2.65
scalar Network.dyn_peer[941] 	lookupStabilitySig:mean 	0.92028575669974
scalar Network.dyn_peer[941] 	lookupHopsSig:mean 	25.75
scalar Network.dyn_peer[942] 	lookupTimeSig:mean 	2.2
scalar Network.dyn_peer[942] 	lookupStabilitySig:mean 	0.9258773321053
scalar Network.dyn_peer[942] 	lookupHopsSig:mean 	21.125
scalar Network.dyn_peer[943] 	lookupTimeSig:mean 	1.925
scalar Network.dyn_peer[943] 	lookupStabilitySig:mean 	0.68033654242754
scalar Network.dyn_peer[943] 	lookupHopsSig:mean 	18.5
scalar Network.dyn_peer[944] 	lookupTimeSig:mean 	1.7333333333333
scalar Network.dyn_peer[944] 	lookupStabilitySig:mean 	0.41092308362325
scalar Network.dyn_peer[944] 	lookupHopsSig:mean 	16.666666666667
scalar Network.dyn_peer[945] 	lookupTimeSig:mean 	2.2
scalar Network.dyn_peer[945] 	lookupStabilitySig:mean 	0.74993229440103
scalar Network.dyn_peer[945] 	lookupHopsSig:mean 	21.166666666667
scalar Network.dyn_peer[946] 	lookupTimeSig:mean 	1.35
scalar Network.dyn_peer[946] 	lookupStabilitySig:mean 	0.90138251736062
scalar Network.dyn_peer[946] 	lookupHopsSig:mean 	12.625
scalar Network.dyn_peer[947] 	lookupTimeSig:mean 	3.7666666666667
scalar Network.dyn_peer[947] 	lookupStabilitySig:mean 	0.87670996785164
scalar Network.dyn_peer[947] 	lookupHopsSig:mean 	37
scalar Network.dyn_peer[948] 	lookupTimeSig:mean 	2.6
scalar Network.dyn_peer[948] 	lookupStabilitySig:mean 	0.5846651494503
scalar Network.dyn_peer[948] 	lookupHopsSig:mean 	25.333333333333
scalar Network.dyn_peer[949] 	lookupTimeSig:mean 	2
scalar Network.dyn_peer[949] 	lookupStabilitySig:mean 	0.8358172380055
scalar Network.dyn_peer[949] 	lookupHopsSig:mean 	19.166666666667
scalar Network.dyn_peer[950] 	lookupTimeSig:mean 	2.86
scalar Network.dyn_peer[950] 	lookupStabilitySig:mean 	0.81705352365971
scalar Network.dyn_peer[950] 	lookupHopsSig:mean 	27.8
scalar Network.dyn_peer[951] 	lookupTimeSig:mean 	2.425
scalar Network.dyn_peer[951] 	lookupStabilitySig:mean 	0.86190166510642
scalar Network.dyn_peer[951] 	lookupHopsSig:mean 	23.5
scalar Network.dyn_peer[952] 	lookupTimeSig:mean 	1.55
scalar Network.dyn_peer[952] 	lookupStabilitySig:mean 	0.81670360168209
scalar Network.dyn_peer[952] 	lookupHopsSig:mean 	14.625
scalar Network.dyn_peer[953] 	lookupTimeSig:mean 	1
scalar Network.dyn_peer[953] 	lookupStabilitySig:mean 	0.52015688642859
scalar Network.dyn_peer[953] 	lookupHopsSig:mean 	9.25
scalar Network.dyn_peer[954] 	lookupTimeSig:mean 	1.4571428571429
scalar Network.dyn_peer[954] 	lookupStabilitySig:mean 	0.80645206078355
scalar Network.dyn_peer[954] 	lookupHopsSig:mean 	13.714285714286
scalar Network.dyn_peer[955] 	lookupTimeSig:mean 	1.1333333333333
scalar Network.dyn_peer[955] 	lookupStabilitySig:mean 	0.51830334961414
scalar Network.dyn_peer[955] 	lookupHopsSig:mean 	10.666666666667
scalar Network.dyn_peer[956] 	lookupTimeSig:mean 	2.2
scalar Network.dyn_peer[956] 	lookupStabilitySig:mean 	0.89820375777781
scalar Network.dyn_peer[956] 	lookupHopsSig:mean 	21.2
scalar Network.dyn_peer[957] 	lookupTimeSig:mean 	2.14
scalar Network.dyn_peer[957] 	lookupStabilitySig:mean 	0.80952234342694
scalar Network.dyn_peer[957] 	lookupHopsSig:mean 	20.6
scalar Network.dyn_peer[958] 	lookupTimeSig:mean 	1.2375
scalar Network.dyn_peer[958] 	lookupStabilitySig:mean 	0.93473027716391
scalar Network.dyn_peer[958] 	lookupHopsSig:mean 	11.5
scalar Network.dyn_peer[959] 	lookupTimeSig:mean 	1.7166666666667
scalar Network.dyn_peer[959] 	lookupStabilitySig:mean 	0.94460174782823
scalar Network.dyn_peer[959] 	lookupHopsSig:mean 	16.333333333333
scalar Network.dyn_peer[960] 	lookupTimeSig:mean 	2.05
scalar Network.dyn_peer[960] 	lookupStabilitySig:mean 	0.79200031901322
scalar Network.dyn_peer[960] 	lookupHopsSig:mean 	19.666666666667
scalar Network.dyn_peer[961] 	lookupTimeSig:mean 	1.4571428571429
scalar Network.dyn_peer[961] 	lookupStabilitySig:mean 	0.92871653674436
scalar Network.dyn_peer[961] 	lookupHopsSig:mean 	13.714285714286
scalar Network.dyn_peer[962] 	lookupTimeSig:mean 	2.575
scalar Network.dyn_peer[962] 	lookupStabilitySig:mean 	0.66498571168631
scalar Network.dyn_peer[962] 	lookupHopsSig:mean 	25
scalar Network.dyn_peer[963] 	lookupTimeSig:mean 	0.75
scalar Network.dyn_peer[963] 	lookupStabilitySig:mean 	0.7503103557392
scalar Network.dyn_peer[963] 	lookupHopsSig:mean 	6.625
scalar Network.dyn_peer[964] 	lookupTimeSig:mean 	2.025
scalar Network.dyn_peer[964] 	lookupStabilitySig:mean 	0.67840184550732
scalar Network.dyn_peer[964] 	lookupHopsSig:mean 	19.5
scalar Network.dyn_peer[965] 	lookupTimeSig:mean 	1.3666666666667
scalar Network.dyn_peer[965] 	lookupStabilitySig:mean 	0.84764438308775
scalar Network.dyn_peer[965] 	lookupHopsSig:mean 	12.833333333333
scalar Network.dyn_peer[966] 	lookupTimeSig:mean 	1.4142857142857
scalar Network.dyn_peer[966] 	lookupStabilitySig:mean 	0.91173325402529
scalar Network.dyn_peer[966] 	lookupHopsSig:mean 	13.214285714286
scalar Network.dyn_peer[967] 	lookupTimeSig:mean 	2.175
scalar Network.dyn_peer[967] 	lookupStabilitySig:mean 	0.8842535209842
scalar Network.dyn_peer[967] 	lookupHopsSig:mean 	21
scalar Network.dyn_peer[968] 	lookupTimeSig:mean 	1.3222222222222
scalar Network.dyn_peer[968] 	lookupStabilitySig:mean 	0.83790288389557
scalar Network.dyn_peer[968] 	lookupHopsSig:mean 	12.333333333333
scalar Network.dyn_peer[969] 	lookupTimeSig:mean 	1.75
scalar Network.dyn_peer[969] 	lookupStabilitySig:mean 	0.46033653616905
scalar Network.dyn_peer[969] 	lookupHopsSig:mean 	17
scalar Network.dyn_peer[970] 	lookupTimeSig:mean 	1.3
scalar Network.dyn_peer[970] 	lookupStabilitySig:mean 	0.52808084525168
scalar Network.dyn_peer[970] 	lookupHopsSig:mean 	12.25
scalar Network.dyn_peer[971] 	lookupTimeSig:mean 	1.3857142857143
scalar Network.dyn_peer[971] 	lookupStabilitySig:mean 	0.8027316550059
scalar Network.dyn_peer[971] 	lookupHopsSig:mean 	13
scalar Network.dyn_peer[972] 	lookupTimeSig:mean 	1.5818181818182
scalar Network.dyn_peer[972] 	lookupStabilitySig:mean 	0.96446885665963
scalar Network.dyn_peer[972] 	lookupHopsSig:mean 	14.909090909091
scalar Network.dyn_peer[973] 	lookupTimeSig:mean 	1.72
scalar Network.dyn_peer[973] 	lookupStabilitySig:mean 	0.74528140649199
scalar Network.dyn_peer[973] 	lookupHopsSig:mean 	16.4
scalar Network.dyn_peer[974] 	lookupTimeSig:mean 	1.9
scalar Network.dyn_peer[974] 	lookupStabilitySig:mean 	0.92615906226759
scalar Network.dyn_peer[974] 	lookupHopsSig:mean 	18.166666666667
scalar Network.dyn_peer[975] 	lookupTimeSig:mean 	1.5
scalar Network.dyn_peer[975] 	lookupStabilitySig:mean 	0.82707282723012
scalar Network.dyn_peer[975] 	lookupHopsSig:mean 	14.090909090909
scalar Network.dyn_peer[976] 	lookupTimeSig:mean 	2.8333333333333
scalar Network.dyn_peer[976] 	lookupStabilitySig:mean 	0.57171092182398
scalar Network.dyn_peer[976] 	lookupHopsSig:mean 	27.666666666667
scalar Network.dyn_peer[977] 	lookupTimeSig:mean 	1.8833333333333
scalar Network.dyn_peer[977] 	lookupStabilitySig:mean 	0.81463066209108
scalar Network.dyn_peer[977] 	lookupHopsSig:mean 	18
scalar Network.dyn_peer[978] 	lookupTimeSig:mean 	1.2333333333333
scalar Network.dyn_peer[978] 	lookupStabilitySig:mean 	0.86165323625836
scalar Network.dyn_peer[978] 	lookupHopsSig:mean 	11.444444444444
scalar Network.dyn_peer[979] 	lookupTimeSig:mean 	1.2
scalar Network.dyn_peer[979] 	lookupStabilitySig:mean 	0.66011959593743
scalar Network.dyn_peer[979] 	lookupHopsSig:mean 	11.25
scalar Network.dyn_peer[980] 	lookupTimeSig:mean 	1.3
scalar Network.dyn_peer[980] 	lookupStabilitySig:mean 	0.67572304047644
scalar Network.dyn_peer[980] 	lookupHopsSig:mean 	12.25
scalar Network.dyn_peer[981] 	lookupTimeSig:mean 	2.1857142857143
scalar Network.dyn_peer[981] 	lookupStabilitySig:mean 	0.94899668923712
scalar Network.dyn_peer[981] 	lookupHopsSig:mean 	21
scalar Network.dyn_peer[982] 	lookupTimeSig:mean 	2.2
scalar Network.dyn_peer[982] 	lookupStabilitySig:mean 	0.86136631698658
scalar Network.dyn_peer[982] 	lookupHopsSig:mean 	21.166666666667
scalar Network.dyn_peer[983] 	lookupTimeSig:mean 	1.8272727272727
scalar Network.dyn_peer[983] 	lookupStabilitySig:mean 	0.96117129511285
scalar Network.dyn_peer[983] 	lookupHopsSig:mean 	17.363636363636
scalar Network.dyn_peer[984] 	lookupTimeSig:mean 	1.2285714285714
scalar Network.dyn_peer[984] 	lookupStabilitySig:mean 	0.78657662908414
scalar Network.dyn_peer[984] 	lookupHopsSig:mean 	11.428571428571
scalar Network.dyn_peer[985] 	lookupTimeSig:mean 	2.6
scalar Network.dyn_peer[985] 	lookupStabilitySig:mean 	0.26254347711802
scalar Network.dyn_peer[985] 	lookupHopsSig:mean 	25.5
scalar Network.dyn_peer[986] 	lookupTimeSig:mean 	1.4875
scalar Network.dyn_peer[986] 	lookupStabilitySig:mean 	0.83447773876833
scalar Network.dyn_peer[986] 	lookupHopsSig:mean 	14
scalar Network.dyn_peer[987] 	lookupTimeSig:mean 	2.0428571428571
scalar Network.dyn_peer[987] 	lookupStabilitySig:mean 	0.8565582039633
scalar Network.dyn_peer[987] 	lookupHopsSig:mean 	19.571428571429
scalar Network.dyn_peer[988] 	lookupTimeSig:mean 	1.925
scalar Network.dyn_peer[988] 	lookupStabilitySig:mean 	0.68617711775005
scalar Network.dyn_peer[988] 	lookupHopsSig:mean 	18.5
scalar Network.dyn_peer[989] 	lookupTimeSig:mean 	1.9333333333333
scalar Network.dyn_peer[989] 	lookupStabilitySig:mean 	0.96790528351751
scalar Network.dyn_peer[989] 	lookupHopsSig:mean 	18.416666666667
scalar Network.dyn_peer[990] 	lookupTimeSig:mean 	1.7333333333333
scalar Network.dyn_peer[990] 	lookupStabilitySig:mean 	0.62940029551586
scalar Network.dyn_peer[990] 	lookupHopsSig:mean 	16.666666666667
scalar Network.dyn_peer[991] 	lookupTimeSig:mean 	1.46
scalar Network.dyn_peer[991] 	lookupStabilitySig:mean 	0.85065808556974
scalar Network.dyn_peer[991] 	lookupHopsSig:mean 	13.8
scalar Network.dyn_peer[992] 	lookupTimeSig:mean 	1.6625
scalar Network.dyn_peer[992] 	lookupStabilitySig:mean 	0.91640036192257
scalar Network.dyn_peer[992] 	lookupHopsSig:mean 	15.75
scalar Network.dyn_peer[993] 	lookupTimeSig:mean 	1.5
scalar Network.dyn_peer[993] 	lookupStabilitySig:mean 	0.94050206277858
scalar Network.dyn_peer[993] 	lookupHopsSig:mean 	14.090909090909
scalar Network.dyn_peer[994] 	lookupTimeSig:mean 	1.55
scalar Network.dyn_peer[994] 	lookupStabilitySig:mean 	0.70659217727371
scalar Network.dyn_peer[994] 	lookupHopsSig:mean 	14.666666666667
scalar Network.dyn_peer[995] 	lookupTimeSig:mean 	1.65
scalar Network.dyn_peer[995] 	lookupStabilitySig:mean 	0.8996565968846
scalar Network.dyn_peer[995] 	lookupHopsSig:mean 	15.625
scalar Network.dyn_peer[996] 	lookupTimeSig:mean 	3.08
scalar Network.dyn_peer[996] 	lookupStabilitySig:mean 	0.92499425932765
scalar Network.dyn_peer[996] 	lookupHopsSig:mean 	30
scalar Network.dyn_peer[997] 	lookupTimeSig:mean 	1.5857142857143
scalar Network.dyn_peer[997] 	lookupStabilitySig:mean 	0.73033223833357
scalar Network.dyn_peer[997] 	lookupHopsSig:mean 	15
scalar Network.dyn_peer[998] 	lookupTimeSig:mean 	2.4333333333333
scalar Network.dyn_peer[998] 	lookupStabilitySig:mean 	0.74599067494273
scalar Network.dyn_peer[998] 	lookupHopsSig:mean 	23.666666666667
scalar Network.dyn_peer[999] 	lookupTimeSig:mean 	1.775
scalar Network.dyn_peer[999] 	lookupStabilitySig:mean 	0.95220717409393
scalar Network.dyn_peer[999] 	lookupHopsSig:mean 	16.875
scalar Network.churner 	inGoingSizeSig:mean 	498.54045954046
