version 2
run Stability2-271-20130526-00:53:34-26640
attr configname Stability2
attr datetime 20130526-00:53:34
attr experiment Stability2
attr inifile omnetpp.ini
attr iterationvars $0=500
attr iterationvars2 "$0=500, $repetition=1"
attr measurement $0=500
attr network Network
attr processid 26640
attr repetition 1
attr replication #1
attr resultdir results
attr runnumber 271
attr seedset 271

scalar Network.dyn_peer[0] 	lookupTimeSig:mean 	1.625
scalar Network.dyn_peer[0] 	lookupStabilitySig:mean 	0.56193337403238
scalar Network.dyn_peer[0] 	lookupHopsSig:mean 	15.5
scalar Network.dyn_peer[1] 	lookupTimeSig:mean 	1.18
scalar Network.dyn_peer[1] 	lookupStabilitySig:mean 	0.60914476811886
scalar Network.dyn_peer[1] 	lookupHopsSig:mean 	11
scalar Network.dyn_peer[2] 	lookupTimeSig:mean 	1.5
scalar Network.dyn_peer[2] 	lookupStabilitySig:mean 	0.36706707626581
scalar Network.dyn_peer[2] 	lookupHopsSig:mean 	14.333333333333
scalar Network.dyn_peer[3] 	lookupTimeSig:mean 	0.98
scalar Network.dyn_peer[3] 	lookupStabilitySig:mean 	0.73938599266112
scalar Network.dyn_peer[3] 	lookupHopsSig:mean 	8.9
scalar Network.dyn_peer[4] 	lookupTimeSig:mean 	1.43
scalar Network.dyn_peer[4] 	lookupStabilitySig:mean 	0.77807011976838
scalar Network.dyn_peer[4] 	lookupHopsSig:mean 	13.4
scalar Network.dyn_peer[5] 	lookupTimeSig:mean 	0.96666666666667
scalar Network.dyn_peer[5] 	lookupStabilitySig:mean 	0.77839675763001
scalar Network.dyn_peer[5] 	lookupHopsSig:mean 	8.8333333333333
scalar Network.dyn_peer[6] 	lookupTimeSig:mean 	1.075
scalar Network.dyn_peer[6] 	lookupStabilitySig:mean 	0.40689680352807
scalar Network.dyn_peer[6] 	lookupHopsSig:mean 	10
scalar Network.dyn_peer[7] 	lookupTimeSig:mean 	1.55
scalar Network.dyn_peer[7] 	lookupStabilitySig:mean 	0.46428573131561
scalar Network.dyn_peer[7] 	lookupHopsSig:mean 	15
scalar Network.dyn_peer[8] 	lookupTimeSig:mean 	1.825
scalar Network.dyn_peer[8] 	lookupStabilitySig:mean 	0.38178102648817
scalar Network.dyn_peer[8] 	lookupHopsSig:mean 	17.5
scalar Network.dyn_peer[9] 	lookupTimeSig:mean 	1.925
scalar Network.dyn_peer[9] 	lookupStabilitySig:mean 	0.28003663755953
scalar Network.dyn_peer[9] 	lookupHopsSig:mean 	18.5
scalar Network.dyn_peer[10] 	lookupTimeSig:mean 	2
scalar Network.dyn_peer[10] 	lookupStabilitySig:mean 	0.14999997615814
scalar Network.dyn_peer[10] 	lookupHopsSig:mean 	19.5
scalar Network.dyn_peer[11] 	lookupTimeSig:mean 	1.7333333333333
scalar Network.dyn_peer[11] 	lookupStabilitySig:mean 	0.38619413971901
scalar Network.dyn_peer[11] 	lookupHopsSig:mean 	16.666666666667
scalar Network.dyn_peer[12] 	lookupTimeSig:mean 	0.95
scalar Network.dyn_peer[12] 	lookupStabilitySig:mean 	0.2119953520596
scalar Network.dyn_peer[12] 	lookupHopsSig:mean 	8.75
scalar Network.dyn_peer[13] 	lookupTimeSig:mean 	1.4333333333333
scalar Network.dyn_peer[13] 	lookupStabilitySig:mean 	0.48653731246789
scalar Network.dyn_peer[13] 	lookupHopsSig:mean 	13.666666666667
scalar Network.dyn_peer[14] 	lookupTimeSig:mean 	1.6
scalar Network.dyn_peer[14] 	lookupStabilitySig:mean 	0.25490194062392
scalar Network.dyn_peer[14] 	lookupHopsSig:mean 	15.333333333333
scalar Network.dyn_peer[15] 	lookupTimeSig:mean 	1.28
scalar Network.dyn_peer[15] 	lookupStabilitySig:mean 	0.4133497685194
scalar Network.dyn_peer[15] 	lookupHopsSig:mean 	12
scalar Network.dyn_peer[16] 	lookupTimeSig:mean 	1.775
scalar Network.dyn_peer[16] 	lookupStabilitySig:mean 	0.74254304962233
scalar Network.dyn_peer[16] 	lookupHopsSig:mean 	17
scalar Network.dyn_peer[17] 	lookupTimeSig:mean 	1.6833333333333
scalar Network.dyn_peer[17] 	lookupStabilitySig:mean 	0.84906430030242
scalar Network.dyn_peer[17] 	lookupHopsSig:mean 	16
scalar Network.dyn_peer[18] 	lookupTimeSig:mean 	1.65
scalar Network.dyn_peer[18] 	lookupStabilitySig:mean 	-0.21052631735802
scalar Network.dyn_peer[18] 	lookupHopsSig:mean 	16
scalar Network.dyn_peer[19] 	lookupTimeSig:mean 	1.6666666666667
scalar Network.dyn_peer[19] 	lookupStabilitySig:mean 	0.28695651392142
scalar Network.dyn_peer[19] 	lookupHopsSig:mean 	16
scalar Network.dyn_peer[20] 	lookupTimeSig:mean 	1.02
scalar Network.dyn_peer[20] 	lookupStabilitySig:mean 	0.43055072128773
scalar Network.dyn_peer[20] 	lookupHopsSig:mean 	9.4
scalar Network.dyn_peer[21] 	lookupTimeSig:mean 	1.5333333333333
scalar Network.dyn_peer[21] 	lookupStabilitySig:mean 	0.52836878101031
scalar Network.dyn_peer[21] 	lookupHopsSig:mean 	14.666666666667
scalar Network.dyn_peer[22] 	lookupTimeSig:mean 	0.93333333333333
scalar Network.dyn_peer[22] 	lookupStabilitySig:mean 	0.30707071721554
scalar Network.dyn_peer[22] 	lookupHopsSig:mean 	8.6666666666667
scalar Network.dyn_peer[23] 	lookupTimeSig:mean 	1.28
scalar Network.dyn_peer[23] 	lookupStabilitySig:mean 	0.37117233499885
scalar Network.dyn_peer[23] 	lookupHopsSig:mean 	12
scalar Network.dyn_peer[24] 	lookupTimeSig:mean 	2.2
scalar Network.dyn_peer[24] 	lookupStabilitySig:mean 	0.38355780144533
scalar Network.dyn_peer[24] 	lookupHopsSig:mean 	21.333333333333
scalar Network.dyn_peer[25] 	lookupTimeSig:mean 	2.025
scalar Network.dyn_peer[25] 	lookupStabilitySig:mean 	0.83124758116901
scalar Network.dyn_peer[25] 	lookupHopsSig:mean 	19.5
scalar Network.dyn_peer[26] 	lookupTimeSig:mean 	1.6666666666667
scalar Network.dyn_peer[26] 	lookupStabilitySig:mean 	0.26715429127216
scalar Network.dyn_peer[26] 	lookupHopsSig:mean 	16
scalar Network.dyn_peer[27] 	lookupTimeSig:mean 	3.95
scalar Network.dyn_peer[27] 	lookupStabilitySig:mean 	0.29121436923742
scalar Network.dyn_peer[27] 	lookupHopsSig:mean 	39
scalar Network.dyn_peer[28] 	lookupTimeSig:mean 	1.24
scalar Network.dyn_peer[28] 	lookupStabilitySig:mean 	0.4671551797539
scalar Network.dyn_peer[28] 	lookupHopsSig:mean 	11.6
scalar Network.dyn_peer[29] 	lookupTimeSig:mean 	2.6
scalar Network.dyn_peer[29] 	lookupStabilitySig:mean 	0.22824424505234
scalar Network.dyn_peer[29] 	lookupHopsSig:mean 	25.5
scalar Network.dyn_peer[30] 	lookupTimeSig:mean 	1.08
scalar Network.dyn_peer[30] 	lookupStabilitySig:mean 	0.34946099072695
scalar Network.dyn_peer[30] 	lookupHopsSig:mean 	10
scalar Network.dyn_peer[31] 	lookupTimeSig:mean 	1.3625
scalar Network.dyn_peer[31] 	lookupStabilitySig:mean 	0.75023602508008
scalar Network.dyn_peer[31] 	lookupHopsSig:mean 	12.75
scalar Network.dyn_peer[32] 	lookupTimeSig:mean 	1.2
scalar Network.dyn_peer[32] 	lookupStabilitySig:mean 	0.5282459706068
scalar Network.dyn_peer[32] 	lookupHopsSig:mean 	11.2
scalar Network.dyn_peer[33] 	lookupTimeSig:mean 	1.3833333333333
scalar Network.dyn_peer[33] 	lookupStabilitySig:mean 	0.53853753705819
scalar Network.dyn_peer[33] 	lookupHopsSig:mean 	13
scalar Network.dyn_peer[34] 	lookupTimeSig:mean 	1.2125
scalar Network.dyn_peer[34] 	lookupStabilitySig:mean 	0.62770073837601
scalar Network.dyn_peer[34] 	lookupHopsSig:mean 	11.25
scalar Network.dyn_peer[35] 	lookupTimeSig:mean 	2.1
scalar Network.dyn_peer[35] 	lookupStabilitySig:mean 	0.40690317749977
scalar Network.dyn_peer[35] 	lookupHopsSig:mean 	20.333333333333
scalar Network.dyn_peer[36] 	lookupTimeSig:mean 	0.9
scalar Network.dyn_peer[36] 	lookupStabilitySig:mean 	0.45995438043028
scalar Network.dyn_peer[36] 	lookupHopsSig:mean 	8.2
scalar Network.dyn_peer[37] 	lookupTimeSig:mean 	1.9
scalar Network.dyn_peer[37] 	lookupStabilitySig:mean 	0.19369918107986
scalar Network.dyn_peer[37] 	lookupHopsSig:mean 	18.333333333333
scalar Network.dyn_peer[38] 	lookupTimeSig:mean 	1.2333333333333
scalar Network.dyn_peer[38] 	lookupStabilitySig:mean 	0.32222220301628
scalar Network.dyn_peer[38] 	lookupHopsSig:mean 	11.666666666667
scalar Network.dyn_peer[39] 	lookupTimeSig:mean 	0.825
scalar Network.dyn_peer[39] 	lookupStabilitySig:mean 	0.22124542295933
scalar Network.dyn_peer[39] 	lookupHopsSig:mean 	7.5
scalar Network.dyn_peer[40] 	lookupTimeSig:mean 	1.2333333333333
scalar Network.dyn_peer[40] 	lookupStabilitySig:mean 	0.3941299666961
scalar Network.dyn_peer[40] 	lookupHopsSig:mean 	11.666666666667
scalar Network.dyn_peer[41] 	lookupTimeSig:mean 	2
scalar Network.dyn_peer[41] 	lookupStabilitySig:mean 	0.23843350509802
scalar Network.dyn_peer[41] 	lookupHopsSig:mean 	19.333333333333
scalar Network.dyn_peer[42] 	lookupTimeSig:mean 	1.66
scalar Network.dyn_peer[42] 	lookupStabilitySig:mean 	0.85989417284727
scalar Network.dyn_peer[42] 	lookupHopsSig:mean 	15.8
scalar Network.dyn_peer[43] 	lookupTimeSig:mean 	1.82
scalar Network.dyn_peer[43] 	lookupStabilitySig:mean 	0.72367141321301
scalar Network.dyn_peer[43] 	lookupHopsSig:mean 	17.4
scalar Network.dyn_peer[44] 	lookupTimeSig:mean 	1.2
scalar Network.dyn_peer[44] 	lookupStabilitySig:mean 	0.40796701610088
scalar Network.dyn_peer[44] 	lookupHopsSig:mean 	11.25
scalar Network.dyn_peer[45] 	lookupTimeSig:mean 	1.675
scalar Network.dyn_peer[45] 	lookupStabilitySig:mean 	0.35322295036167
scalar Network.dyn_peer[45] 	lookupHopsSig:mean 	16
scalar Network.dyn_peer[46] 	lookupTimeSig:mean 	1.6833333333333
scalar Network.dyn_peer[46] 	lookupStabilitySig:mean 	0.55727386350433
scalar Network.dyn_peer[46] 	lookupHopsSig:mean 	16
scalar Network.dyn_peer[47] 	lookupTimeSig:mean 	1.75
scalar Network.dyn_peer[47] 	lookupStabilitySig:mean 	0.11428567767143
scalar Network.dyn_peer[47] 	lookupHopsSig:mean 	17
scalar Network.dyn_peer[48] 	lookupTimeSig:mean 	1.6
scalar Network.dyn_peer[48] 	lookupStabilitySig:mean 	0.17232703169187
scalar Network.dyn_peer[48] 	lookupHopsSig:mean 	15.333333333333
scalar Network.dyn_peer[49] 	lookupTimeSig:mean 	1.3285714285714
scalar Network.dyn_peer[49] 	lookupStabilitySig:mean 	0.60725754286562
scalar Network.dyn_peer[49] 	lookupHopsSig:mean 	12.428571428571
scalar Network.dyn_peer[50] 	lookupTimeSig:mean 	1.3571428571429
scalar Network.dyn_peer[50] 	lookupStabilitySig:mean 	0.7587996540325
scalar Network.dyn_peer[50] 	lookupHopsSig:mean 	12.714285714286
scalar Network.dyn_peer[51] 	lookupTimeSig:mean 	0.98
scalar Network.dyn_peer[51] 	lookupStabilitySig:mean 	0.5483069807291
scalar Network.dyn_peer[51] 	lookupHopsSig:mean 	9
scalar Network.dyn_peer[52] 	lookupTimeSig:mean 	1.3333333333333
scalar Network.dyn_peer[52] 	lookupStabilitySig:mean 	0.45388126373291
scalar Network.dyn_peer[52] 	lookupHopsSig:mean 	12.666666666667
scalar Network.dyn_peer[53] 	lookupTimeSig:mean 	2.5
scalar Network.dyn_peer[53] 	lookupStabilitySig:mean 	0.39866667489211
scalar Network.dyn_peer[53] 	lookupHopsSig:mean 	24.333333333333
scalar Network.dyn_peer[54] 	lookupTimeSig:mean 	2.45
scalar Network.dyn_peer[54] 	lookupStabilitySig:mean 	0.53963302914053
scalar Network.dyn_peer[54] 	lookupHopsSig:mean 	23.75
scalar Network.dyn_peer[55] 	lookupTimeSig:mean 	1.3714285714286
scalar Network.dyn_peer[55] 	lookupStabilitySig:mean 	0.63969169956233
scalar Network.dyn_peer[55] 	lookupHopsSig:mean 	12.857142857143
scalar Network.dyn_peer[56] 	lookupTimeSig:mean 	1.8333333333333
scalar Network.dyn_peer[56] 	lookupStabilitySig:mean 	0.23619045813878
scalar Network.dyn_peer[56] 	lookupHopsSig:mean 	17.666666666667
scalar Network.dyn_peer[57] 	lookupTimeSig:mean 	1.16
scalar Network.dyn_peer[57] 	lookupStabilitySig:mean 	0.39565299898386
scalar Network.dyn_peer[57] 	lookupHopsSig:mean 	10.8
scalar Network.dyn_peer[58] 	lookupTimeSig:mean 	1.4
scalar Network.dyn_peer[58] 	lookupStabilitySig:mean 	0.57425701804459
scalar Network.dyn_peer[58] 	lookupHopsSig:mean 	13.25
scalar Network.dyn_peer[59] 	lookupTimeSig:mean 	2.9
scalar Network.dyn_peer[59] 	lookupStabilitySig:mean 	0.37727819755673
scalar Network.dyn_peer[59] 	lookupHopsSig:mean 	28.333333333333
scalar Network.dyn_peer[60] 	lookupTimeSig:mean 	1.3666666666667
scalar Network.dyn_peer[60] 	lookupStabilitySig:mean 	0.50199461107453
scalar Network.dyn_peer[60] 	lookupHopsSig:mean 	12.833333333333
scalar Network.dyn_peer[61] 	lookupTimeSig:mean 	1.2666666666667
scalar Network.dyn_peer[61] 	lookupStabilitySig:mean 	0.31851850946744
scalar Network.dyn_peer[61] 	lookupHopsSig:mean 	12
scalar Network.dyn_peer[62] 	lookupTimeSig:mean 	1.2333333333333
scalar Network.dyn_peer[62] 	lookupStabilitySig:mean 	0.37818181018035
scalar Network.dyn_peer[62] 	lookupHopsSig:mean 	11.666666666667
scalar Network.dyn_peer[63] 	lookupTimeSig:mean 	1.5571428571429
scalar Network.dyn_peer[63] 	lookupStabilitySig:mean 	0.84330940512674
scalar Network.dyn_peer[63] 	lookupHopsSig:mean 	14.714285714286
scalar Network.dyn_peer[64] 	lookupTimeSig:mean 	0.81666666666667
scalar Network.dyn_peer[64] 	lookupStabilitySig:mean 	0.6476703317215
scalar Network.dyn_peer[64] 	lookupHopsSig:mean 	7.3333333333333
scalar Network.dyn_peer[65] 	lookupTimeSig:mean 	1.0666666666667
scalar Network.dyn_peer[65] 	lookupStabilitySig:mean 	0.60072548221797
scalar Network.dyn_peer[65] 	lookupHopsSig:mean 	9.8333333333333
scalar Network.dyn_peer[66] 	lookupTimeSig:mean 	1.75
scalar Network.dyn_peer[66] 	lookupStabilitySig:mean 	0.28499999642372
scalar Network.dyn_peer[66] 	lookupHopsSig:mean 	17
scalar Network.dyn_peer[67] 	lookupTimeSig:mean 	1.56
scalar Network.dyn_peer[67] 	lookupStabilitySig:mean 	0.74510181313381
scalar Network.dyn_peer[67] 	lookupHopsSig:mean 	14.7
scalar Network.dyn_peer[68] 	lookupTimeSig:mean 	3.2
scalar Network.dyn_peer[68] 	lookupStabilitySig:mean 	-0.12740384042263
scalar Network.dyn_peer[68] 	lookupHopsSig:mean 	31.5
scalar Network.dyn_peer[69] 	lookupTimeSig:mean 	2.45
scalar Network.dyn_peer[69] 	lookupStabilitySig:mean 	0.422896604985
scalar Network.dyn_peer[69] 	lookupHopsSig:mean 	23.75
scalar Network.dyn_peer[70] 	lookupTimeSig:mean 	1.875
scalar Network.dyn_peer[70] 	lookupStabilitySig:mean 	0.6274461504072
scalar Network.dyn_peer[70] 	lookupHopsSig:mean 	18
scalar Network.dyn_peer[71] 	lookupTimeSig:mean 	1.12
scalar Network.dyn_peer[71] 	lookupStabilitySig:mean 	0.50993184745312
scalar Network.dyn_peer[71] 	lookupHopsSig:mean 	10.4
scalar Network.dyn_peer[72] 	lookupTimeSig:mean 	1.55
scalar Network.dyn_peer[72] 	lookupStabilitySig:mean 	0.39971446990967
scalar Network.dyn_peer[72] 	lookupHopsSig:mean 	14.75
scalar Network.dyn_peer[73] 	lookupTimeSig:mean 	1.275
scalar Network.dyn_peer[73] 	lookupStabilitySig:mean 	0.32584631070495
scalar Network.dyn_peer[73] 	lookupHopsSig:mean 	12
scalar Network.dyn_peer[74] 	lookupTimeSig:mean 	1.4166666666667
scalar Network.dyn_peer[74] 	lookupStabilitySig:mean 	0.5404862506936
scalar Network.dyn_peer[74] 	lookupHopsSig:mean 	13.333333333333
scalar Network.dyn_peer[75] 	lookupTimeSig:mean 	1.125
scalar Network.dyn_peer[75] 	lookupStabilitySig:mean 	0.50293062115088
scalar Network.dyn_peer[75] 	lookupHopsSig:mean 	10.5
scalar Network.dyn_peer[76] 	lookupTimeSig:mean 	1.675
scalar Network.dyn_peer[76] 	lookupStabilitySig:mean 	0.55415854789317
scalar Network.dyn_peer[76] 	lookupHopsSig:mean 	16
scalar Network.dyn_peer[77] 	lookupTimeSig:mean 	1.4428571428571
scalar Network.dyn_peer[77] 	lookupStabilitySig:mean 	0.79520513755935
scalar Network.dyn_peer[77] 	lookupHopsSig:mean 	13.571428571429
scalar Network.dyn_peer[78] 	lookupTimeSig:mean 	1.6714285714286
scalar Network.dyn_peer[78] 	lookupStabilitySig:mean 	0.87401526314872
scalar Network.dyn_peer[78] 	lookupHopsSig:mean 	15.857142857143
scalar Network.dyn_peer[79] 	lookupTimeSig:mean 	0.85
scalar Network.dyn_peer[79] 	lookupStabilitySig:mean 	0.33977272361517
scalar Network.dyn_peer[79] 	lookupHopsSig:mean 	7.75
scalar Network.dyn_peer[80] 	lookupTimeSig:mean 	1.34
scalar Network.dyn_peer[80] 	lookupStabilitySig:mean 	0.8559532889165
scalar Network.dyn_peer[80] 	lookupHopsSig:mean 	12.5
scalar Network.dyn_peer[81] 	lookupTimeSig:mean 	2
scalar Network.dyn_peer[81] 	lookupStabilitySig:mean 	0.7613496620208
scalar Network.dyn_peer[81] 	lookupHopsSig:mean 	19.2
scalar Network.dyn_peer[82] 	lookupTimeSig:mean 	1.4
scalar Network.dyn_peer[82] 	lookupStabilitySig:mean 	0.65551040892024
scalar Network.dyn_peer[82] 	lookupHopsSig:mean 	13.125
scalar Network.dyn_peer[83] 	lookupTimeSig:mean 	1.8333333333333
scalar Network.dyn_peer[83] 	lookupStabilitySig:mean 	0.45144108931224
scalar Network.dyn_peer[83] 	lookupHopsSig:mean 	17.666666666667
scalar Network.dyn_peer[84] 	lookupTimeSig:mean 	2.44
scalar Network.dyn_peer[84] 	lookupStabilitySig:mean 	0.67312256805599
scalar Network.dyn_peer[84] 	lookupHopsSig:mean 	23.6
scalar Network.dyn_peer[85] 	lookupTimeSig:mean 	1.275
scalar Network.dyn_peer[85] 	lookupStabilitySig:mean 	0.41606882214546
scalar Network.dyn_peer[85] 	lookupHopsSig:mean 	12
scalar Network.dyn_peer[86] 	lookupTimeSig:mean 	1.6666666666667
scalar Network.dyn_peer[86] 	lookupStabilitySig:mean 	0.27410691479842
scalar Network.dyn_peer[86] 	lookupHopsSig:mean 	16
scalar Network.dyn_peer[87] 	lookupTimeSig:mean 	1.06
scalar Network.dyn_peer[87] 	lookupStabilitySig:mean 	0.67927896007895
scalar Network.dyn_peer[87] 	lookupHopsSig:mean 	9.8
scalar Network.dyn_peer[88] 	lookupTimeSig:mean 	1.3857142857143
scalar Network.dyn_peer[88] 	lookupStabilitySig:mean 	0.5934469516256
scalar Network.dyn_peer[88] 	lookupHopsSig:mean 	13
scalar Network.dyn_peer[89] 	lookupTimeSig:mean 	1.625
scalar Network.dyn_peer[89] 	lookupStabilitySig:mean 	0.52363987639546
scalar Network.dyn_peer[89] 	lookupHopsSig:mean 	15.5
scalar Network.dyn_peer[90] 	lookupTimeSig:mean 	1.2
scalar Network.dyn_peer[90] 	lookupStabilitySig:mean 	0.76491024497558
scalar Network.dyn_peer[90] 	lookupHopsSig:mean 	11.090909090909
scalar Network.dyn_peer[91] 	lookupTimeSig:mean 	2.25
scalar Network.dyn_peer[91] 	lookupStabilitySig:mean 	0.32228531688452
scalar Network.dyn_peer[91] 	lookupHopsSig:mean 	21.75
scalar Network.dyn_peer[92] 	lookupTimeSig:mean 	0.53333333333333
scalar Network.dyn_peer[92] 	lookupStabilitySig:mean 	0.26851850499709
scalar Network.dyn_peer[92] 	lookupHopsSig:mean 	4.6666666666667
scalar Network.dyn_peer[93] 	lookupTimeSig:mean 	1.35
scalar Network.dyn_peer[93] 	lookupStabilitySig:mean 	0.75146876461804
scalar Network.dyn_peer[93] 	lookupHopsSig:mean 	12.75
scalar Network.dyn_peer[94] 	lookupTimeSig:mean 	0.85
scalar Network.dyn_peer[94] 	lookupStabilitySig:mean 	0.34131943061948
scalar Network.dyn_peer[94] 	lookupHopsSig:mean 	7.75
scalar Network.dyn_peer[95] 	lookupTimeSig:mean 	1.5333333333333
scalar Network.dyn_peer[95] 	lookupStabilitySig:mean 	0.32933672765891
scalar Network.dyn_peer[95] 	lookupHopsSig:mean 	14.666666666667
scalar Network.dyn_peer[96] 	lookupTimeSig:mean 	1.65
scalar Network.dyn_peer[96] 	lookupStabilitySig:mean 	-0.16666668653488
scalar Network.dyn_peer[96] 	lookupHopsSig:mean 	16
scalar Network.dyn_peer[97] 	lookupTimeSig:mean 	1.7222222222222
scalar Network.dyn_peer[97] 	lookupStabilitySig:mean 	0.86553558738281
scalar Network.dyn_peer[97] 	lookupHopsSig:mean 	16.333333333333
scalar Network.dyn_peer[98] 	lookupTimeSig:mean 	1.4769230769231
scalar Network.dyn_peer[98] 	lookupStabilitySig:mean 	0.8758615751106
scalar Network.dyn_peer[98] 	lookupHopsSig:mean 	13.846153846154
scalar Network.dyn_peer[99] 	lookupTimeSig:mean 	2.06
scalar Network.dyn_peer[99] 	lookupStabilitySig:mean 	0.71411952674389
scalar Network.dyn_peer[99] 	lookupHopsSig:mean 	19.8
scalar Network.dyn_peer[100] 	lookupTimeSig:mean 	1.425
scalar Network.dyn_peer[100] 	lookupStabilitySig:mean 	0.70813323091716
scalar Network.dyn_peer[100] 	lookupHopsSig:mean 	13.5
scalar Network.dyn_peer[101] 	lookupTimeSig:mean 	1.9666666666667
scalar Network.dyn_peer[101] 	lookupStabilitySig:mean 	0.68442478403449
scalar Network.dyn_peer[101] 	lookupHopsSig:mean 	18.833333333333
scalar Network.dyn_peer[102] 	lookupTimeSig:mean 	3.75
scalar Network.dyn_peer[102] 	lookupStabilitySig:mean 	0.37767155468464
scalar Network.dyn_peer[102] 	lookupHopsSig:mean 	37
scalar Network.dyn_peer[103] 	lookupTimeSig:mean 	1.19
scalar Network.dyn_peer[103] 	lookupStabilitySig:mean 	0.73936141040176
scalar Network.dyn_peer[103] 	lookupHopsSig:mean 	11
scalar Network.dyn_peer[104] 	lookupTimeSig:mean 	0.76666666666667
scalar Network.dyn_peer[104] 	lookupStabilitySig:mean 	0.020833333333333
scalar Network.dyn_peer[104] 	lookupHopsSig:mean 	7
scalar Network.dyn_peer[105] 	lookupTimeSig:mean 	1.4571428571429
scalar Network.dyn_peer[105] 	lookupStabilitySig:mean 	0.68218235591693
scalar Network.dyn_peer[105] 	lookupHopsSig:mean 	13.714285714286
scalar Network.dyn_peer[106] 	lookupTimeSig:mean 	1.1846153846154
scalar Network.dyn_peer[106] 	lookupStabilitySig:mean 	0.9357624036045
scalar Network.dyn_peer[106] 	lookupHopsSig:mean 	10.923076923077
scalar Network.dyn_peer[107] 	lookupTimeSig:mean 	1.3
scalar Network.dyn_peer[107] 	lookupStabilitySig:mean 	0.33920749649405
scalar Network.dyn_peer[107] 	lookupHopsSig:mean 	12.25
scalar Network.dyn_peer[108] 	lookupTimeSig:mean 	0.86
scalar Network.dyn_peer[108] 	lookupStabilitySig:mean 	0.42679234594107
scalar Network.dyn_peer[108] 	lookupHopsSig:mean 	7.8
scalar Network.dyn_peer[109] 	lookupTimeSig:mean 	1.3
scalar Network.dyn_peer[109] 	lookupStabilitySig:mean 	-0.014285728335381
scalar Network.dyn_peer[109] 	lookupHopsSig:mean 	12.5
scalar Network.dyn_peer[110] 	lookupTimeSig:mean 	3.3
scalar Network.dyn_peer[110] 	lookupStabilitySig:mean 	-0.12614679336548
scalar Network.dyn_peer[110] 	lookupHopsSig:mean 	32.5
scalar Network.dyn_peer[111] 	lookupTimeSig:mean 	1.0625
scalar Network.dyn_peer[111] 	lookupStabilitySig:mean 	0.71111128252232
scalar Network.dyn_peer[111] 	lookupHopsSig:mean 	9.75
scalar Network.dyn_peer[112] 	lookupTimeSig:mean 	1.475
scalar Network.dyn_peer[112] 	lookupStabilitySig:mean 	0.34278827346861
scalar Network.dyn_peer[112] 	lookupHopsSig:mean 	14
scalar Network.dyn_peer[113] 	lookupTimeSig:mean 	1.3
scalar Network.dyn_peer[113] 	lookupStabilitySig:mean 	0.52023999889692
scalar Network.dyn_peer[113] 	lookupHopsSig:mean 	12.333333333333
scalar Network.dyn_peer[114] 	lookupTimeSig:mean 	1.16
scalar Network.dyn_peer[114] 	lookupStabilitySig:mean 	0.47122271955013
scalar Network.dyn_peer[114] 	lookupHopsSig:mean 	10.8
scalar Network.dyn_peer[115] 	lookupTimeSig:mean 	1.8
scalar Network.dyn_peer[115] 	lookupStabilitySig:mean 	0.38877408951521
scalar Network.dyn_peer[115] 	lookupHopsSig:mean 	17.25
scalar Network.dyn_peer[116] 	lookupTimeSig:mean 	1.5111111111111
scalar Network.dyn_peer[116] 	lookupStabilitySig:mean 	0.91894541520418
scalar Network.dyn_peer[116] 	lookupHopsSig:mean 	14.222222222222
scalar Network.dyn_peer[117] 	lookupTimeSig:mean 	1.275
scalar Network.dyn_peer[117] 	lookupStabilitySig:mean 	0.55998445255682
scalar Network.dyn_peer[117] 	lookupHopsSig:mean 	12
scalar Network.dyn_peer[118] 	lookupTimeSig:mean 	0.96666666666667
scalar Network.dyn_peer[118] 	lookupStabilitySig:mean 	0.71986105851829
scalar Network.dyn_peer[118] 	lookupHopsSig:mean 	8.8333333333333
scalar Network.dyn_peer[119] 	lookupTimeSig:mean 	1.27
scalar Network.dyn_peer[119] 	lookupStabilitySig:mean 	0.83154373806901
scalar Network.dyn_peer[119] 	lookupHopsSig:mean 	11.8
scalar Network.dyn_peer[120] 	lookupTimeSig:mean 	1.1357142857143
scalar Network.dyn_peer[120] 	lookupStabilitySig:mean 	0.77433466831488
scalar Network.dyn_peer[120] 	lookupHopsSig:mean 	10.428571428571
scalar Network.dyn_peer[121] 	lookupTimeSig:mean 	1.1
scalar Network.dyn_peer[121] 	lookupStabilitySig:mean 	0.31276242039166
scalar Network.dyn_peer[121] 	lookupHopsSig:mean 	10.25
scalar Network.dyn_peer[122] 	lookupTimeSig:mean 	1.7166666666667
scalar Network.dyn_peer[122] 	lookupStabilitySig:mean 	0.7554858221362
scalar Network.dyn_peer[122] 	lookupHopsSig:mean 	16.333333333333
scalar Network.dyn_peer[123] 	lookupTimeSig:mean 	2.4333333333333
scalar Network.dyn_peer[123] 	lookupStabilitySig:mean 	0.55094190438588
scalar Network.dyn_peer[123] 	lookupHopsSig:mean 	23.666666666667
scalar Network.dyn_peer[124] 	lookupTimeSig:mean 	1.375
scalar Network.dyn_peer[124] 	lookupStabilitySig:mean 	0.29790456965566
scalar Network.dyn_peer[124] 	lookupHopsSig:mean 	13
scalar Network.dyn_peer[125] 	lookupTimeSig:mean 	1.525
scalar Network.dyn_peer[125] 	lookupStabilitySig:mean 	0.38741125818342
scalar Network.dyn_peer[125] 	lookupHopsSig:mean 	14.5
scalar Network.dyn_peer[126] 	lookupTimeSig:mean 	3.1
scalar Network.dyn_peer[126] 	lookupStabilitySig:mean 	0.5184759447972
scalar Network.dyn_peer[126] 	lookupHopsSig:mean 	30.333333333333
scalar Network.dyn_peer[127] 	lookupTimeSig:mean 	1.85
scalar Network.dyn_peer[127] 	lookupStabilitySig:mean 	0.60338982194662
scalar Network.dyn_peer[127] 	lookupHopsSig:mean 	18
scalar Network.dyn_peer[128] 	lookupTimeSig:mean 	1.5
scalar Network.dyn_peer[128] 	lookupStabilitySig:mean 	0.91087235406869
scalar Network.dyn_peer[128] 	lookupHopsSig:mean 	14.111111111111
scalar Network.dyn_peer[129] 	lookupTimeSig:mean 	1.7777777777778
scalar Network.dyn_peer[129] 	lookupStabilitySig:mean 	0.70330636534426
scalar Network.dyn_peer[129] 	lookupHopsSig:mean 	16.888888888889
scalar Network.dyn_peer[130] 	lookupTimeSig:mean 	1.4571428571429
scalar Network.dyn_peer[130] 	lookupStabilitySig:mean 	0.68438296126468
scalar Network.dyn_peer[130] 	lookupHopsSig:mean 	13.714285714286
scalar Network.dyn_peer[131] 	lookupTimeSig:mean 	1.3857142857143
scalar Network.dyn_peer[131] 	lookupStabilitySig:mean 	0.85769923989262
scalar Network.dyn_peer[131] 	lookupHopsSig:mean 	13
scalar Network.dyn_peer[132] 	lookupTimeSig:mean 	1.35
scalar Network.dyn_peer[132] 	lookupStabilitySig:mean 	0.35798569954932
scalar Network.dyn_peer[132] 	lookupHopsSig:mean 	12.75
scalar Network.dyn_peer[133] 	lookupTimeSig:mean 	1.5
scalar Network.dyn_peer[133] 	lookupStabilitySig:mean 	0.64162209071219
scalar Network.dyn_peer[133] 	lookupHopsSig:mean 	14.25
scalar Network.dyn_peer[134] 	lookupTimeSig:mean 	1.4
scalar Network.dyn_peer[134] 	lookupStabilitySig:mean 	0.49437469011173
scalar Network.dyn_peer[134] 	lookupHopsSig:mean 	13.25
scalar Network.dyn_peer[135] 	lookupTimeSig:mean 	2.8
scalar Network.dyn_peer[135] 	lookupStabilitySig:mean 	0.52217425405979
scalar Network.dyn_peer[135] 	lookupHopsSig:mean 	27.333333333333
scalar Network.dyn_peer[136] 	lookupTimeSig:mean 	1.6090909090909
scalar Network.dyn_peer[136] 	lookupStabilitySig:mean 	0.79276987148279
scalar Network.dyn_peer[136] 	lookupHopsSig:mean 	15.181818181818
scalar Network.dyn_peer[137] 	lookupTimeSig:mean 	0.52
scalar Network.dyn_peer[137] 	lookupStabilitySig:mean 	0.47250806689262
scalar Network.dyn_peer[137] 	lookupHopsSig:mean 	4.4
scalar Network.dyn_peer[138] 	lookupTimeSig:mean 	1.35
scalar Network.dyn_peer[138] 	lookupStabilitySig:mean 	0.52751869335771
scalar Network.dyn_peer[138] 	lookupHopsSig:mean 	12.75
scalar Network.dyn_peer[139] 	lookupTimeSig:mean 	2.3333333333333
scalar Network.dyn_peer[139] 	lookupStabilitySig:mean 	0.7171996285518
scalar Network.dyn_peer[139] 	lookupHopsSig:mean 	22.666666666667
scalar Network.dyn_peer[140] 	lookupTimeSig:mean 	2.0333333333333
scalar Network.dyn_peer[140] 	lookupStabilitySig:mean 	0.29358532031377
scalar Network.dyn_peer[140] 	lookupHopsSig:mean 	19.666666666667
scalar Network.dyn_peer[141] 	lookupTimeSig:mean 	1.7
scalar Network.dyn_peer[141] 	lookupStabilitySig:mean 	0.94426638027653
scalar Network.dyn_peer[141] 	lookupHopsSig:mean 	16.083333333333
scalar Network.dyn_peer[142] 	lookupTimeSig:mean 	1.625
scalar Network.dyn_peer[142] 	lookupStabilitySig:mean 	0.71173292119056
scalar Network.dyn_peer[142] 	lookupHopsSig:mean 	15.5
scalar Network.dyn_peer[143] 	lookupTimeSig:mean 	0.9375
scalar Network.dyn_peer[143] 	lookupStabilitySig:mean 	0.67955852800515
scalar Network.dyn_peer[143] 	lookupHopsSig:mean 	8.5
scalar Network.dyn_peer[144] 	lookupTimeSig:mean 	1.35
scalar Network.dyn_peer[144] 	lookupStabilitySig:mean 	0.76800476619974
scalar Network.dyn_peer[144] 	lookupHopsSig:mean 	12.625
scalar Network.dyn_peer[145] 	lookupTimeSig:mean 	1.4375
scalar Network.dyn_peer[145] 	lookupStabilitySig:mean 	0.90130061935633
scalar Network.dyn_peer[145] 	lookupHopsSig:mean 	13.5
scalar Network.dyn_peer[146] 	lookupTimeSig:mean 	1.1888888888889
scalar Network.dyn_peer[146] 	lookupStabilitySig:mean 	0.80119613713274
scalar Network.dyn_peer[146] 	lookupHopsSig:mean 	11
scalar Network.dyn_peer[147] 	lookupTimeSig:mean 	1.54
scalar Network.dyn_peer[147] 	lookupStabilitySig:mean 	0.54631368815899
scalar Network.dyn_peer[147] 	lookupHopsSig:mean 	14.6
scalar Network.dyn_peer[148] 	lookupTimeSig:mean 	2.05
scalar Network.dyn_peer[148] 	lookupStabilitySig:mean 	0.62505247071385
scalar Network.dyn_peer[148] 	lookupHopsSig:mean 	19.75
scalar Network.dyn_peer[149] 	lookupTimeSig:mean 	1.1571428571429
scalar Network.dyn_peer[149] 	lookupStabilitySig:mean 	0.54984650760889
scalar Network.dyn_peer[149] 	lookupHopsSig:mean 	10.714285714286
scalar Network.dyn_peer[150] 	lookupTimeSig:mean 	1.1
scalar Network.dyn_peer[150] 	lookupStabilitySig:mean 	0.62049248069525
scalar Network.dyn_peer[150] 	lookupHopsSig:mean 	10.142857142857
scalar Network.dyn_peer[151] 	lookupTimeSig:mean 	1.14
scalar Network.dyn_peer[151] 	lookupStabilitySig:mean 	0.57088901922107
scalar Network.dyn_peer[151] 	lookupHopsSig:mean 	10.6
scalar Network.dyn_peer[152] 	lookupTimeSig:mean 	1.22
scalar Network.dyn_peer[152] 	lookupStabilitySig:mean 	0.47748055905104
scalar Network.dyn_peer[152] 	lookupHopsSig:mean 	11.4
scalar Network.dyn_peer[153] 	lookupTimeSig:mean 	1.875
scalar Network.dyn_peer[153] 	lookupStabilitySig:mean 	0.70232842909172
scalar Network.dyn_peer[153] 	lookupHopsSig:mean 	18
scalar Network.dyn_peer[154] 	lookupTimeSig:mean 	0.55
scalar Network.dyn_peer[154] 	lookupStabilitySig:mean 	0.44999998435378
scalar Network.dyn_peer[154] 	lookupHopsSig:mean 	4.75
scalar Network.dyn_peer[155] 	lookupTimeSig:mean 	1.7714285714286
scalar Network.dyn_peer[155] 	lookupStabilitySig:mean 	0.79115021814193
scalar Network.dyn_peer[155] 	lookupHopsSig:mean 	16.857142857143
scalar Network.dyn_peer[156] 	lookupTimeSig:mean 	1.5857142857143
scalar Network.dyn_peer[156] 	lookupStabilitySig:mean 	0.70243975706398
scalar Network.dyn_peer[156] 	lookupHopsSig:mean 	15
scalar Network.dyn_peer[157] 	lookupTimeSig:mean 	1.2375
scalar Network.dyn_peer[157] 	lookupStabilitySig:mean 	0.67602868378162
scalar Network.dyn_peer[157] 	lookupHopsSig:mean 	11.5
scalar Network.dyn_peer[158] 	lookupTimeSig:mean 	1.3
scalar Network.dyn_peer[158] 	lookupStabilitySig:mean 	0.41874998807907
scalar Network.dyn_peer[158] 	lookupHopsSig:mean 	12.25
scalar Network.dyn_peer[159] 	lookupTimeSig:mean 	2.15
scalar Network.dyn_peer[159] 	lookupStabilitySig:mean 	0.045454546809196
scalar Network.dyn_peer[159] 	lookupHopsSig:mean 	21
scalar Network.dyn_peer[160] 	lookupTimeSig:mean 	1.4571428571429
scalar Network.dyn_peer[160] 	lookupStabilitySig:mean 	0.69161981583706
scalar Network.dyn_peer[160] 	lookupHopsSig:mean 	13.714285714286
scalar Network.dyn_peer[161] 	lookupTimeSig:mean 	2.5666666666667
scalar Network.dyn_peer[161] 	lookupStabilitySig:mean 	0.4672265201807
scalar Network.dyn_peer[161] 	lookupHopsSig:mean 	25
scalar Network.dyn_peer[162] 	lookupTimeSig:mean 	1.8
scalar Network.dyn_peer[162] 	lookupStabilitySig:mean 	0.62530257739127
scalar Network.dyn_peer[162] 	lookupHopsSig:mean 	17.25
scalar Network.dyn_peer[163] 	lookupTimeSig:mean 	1.16
scalar Network.dyn_peer[163] 	lookupStabilitySig:mean 	0.57056086100638
scalar Network.dyn_peer[163] 	lookupHopsSig:mean 	10.8
scalar Network.dyn_peer[164] 	lookupTimeSig:mean 	1.1545454545455
scalar Network.dyn_peer[164] 	lookupStabilitySig:mean 	0.7631557023322
scalar Network.dyn_peer[164] 	lookupHopsSig:mean 	10.636363636364
scalar Network.dyn_peer[165] 	lookupTimeSig:mean 	1.45
scalar Network.dyn_peer[165] 	lookupStabilitySig:mean 	-0.29629629850388
scalar Network.dyn_peer[165] 	lookupHopsSig:mean 	14
scalar Network.dyn_peer[166] 	lookupTimeSig:mean 	0.975
scalar Network.dyn_peer[166] 	lookupStabilitySig:mean 	0.51416665315628
scalar Network.dyn_peer[166] 	lookupHopsSig:mean 	9
scalar Network.dyn_peer[167] 	lookupTimeSig:mean 	1.5
scalar Network.dyn_peer[167] 	lookupStabilitySig:mean 	0.53924838677049
scalar Network.dyn_peer[167] 	lookupHopsSig:mean 	14.2
scalar Network.dyn_peer[168] 	lookupTimeSig:mean 	1.1
scalar Network.dyn_peer[168] 	lookupStabilitySig:mean 	0.48737057354301
scalar Network.dyn_peer[168] 	lookupHopsSig:mean 	10.2
scalar Network.dyn_peer[169] 	lookupTimeSig:mean 	1.45
scalar Network.dyn_peer[169] 	lookupStabilitySig:mean 	0.57061768509448
scalar Network.dyn_peer[169] 	lookupHopsSig:mean 	13.75
scalar Network.dyn_peer[170] 	lookupTimeSig:mean 	1.56
scalar Network.dyn_peer[170] 	lookupStabilitySig:mean 	0.84523823820055
scalar Network.dyn_peer[170] 	lookupHopsSig:mean 	14.8
scalar Network.dyn_peer[171] 	lookupTimeSig:mean 	0.99166666666667
scalar Network.dyn_peer[171] 	lookupStabilitySig:mean 	0.80420621934657
scalar Network.dyn_peer[171] 	lookupHopsSig:mean 	9
scalar Network.dyn_peer[172] 	lookupTimeSig:mean 	2.4666666666667
scalar Network.dyn_peer[172] 	lookupStabilitySig:mean 	0.85469328363736
scalar Network.dyn_peer[172] 	lookupHopsSig:mean 	24
scalar Network.dyn_peer[173] 	lookupTimeSig:mean 	1.55
scalar Network.dyn_peer[173] 	lookupStabilitySig:mean 	0.58907257579267
scalar Network.dyn_peer[173] 	lookupHopsSig:mean 	14.75
scalar Network.dyn_peer[174] 	lookupTimeSig:mean 	1.325
scalar Network.dyn_peer[174] 	lookupStabilitySig:mean 	0.87774122599512
scalar Network.dyn_peer[174] 	lookupHopsSig:mean 	12.375
scalar Network.dyn_peer[175] 	lookupTimeSig:mean 	1.85
scalar Network.dyn_peer[175] 	lookupStabilitySig:mean 	0.7281274634103
scalar Network.dyn_peer[175] 	lookupHopsSig:mean 	17.666666666667
scalar Network.dyn_peer[176] 	lookupTimeSig:mean 	1.0285714285714
scalar Network.dyn_peer[176] 	lookupStabilitySig:mean 	0.91672498120793
scalar Network.dyn_peer[176] 	lookupHopsSig:mean 	9.4285714285714
scalar Network.dyn_peer[177] 	lookupTimeSig:mean 	1.7714285714286
scalar Network.dyn_peer[177] 	lookupStabilitySig:mean 	0.72902916877397
scalar Network.dyn_peer[177] 	lookupHopsSig:mean 	16.857142857143
scalar Network.dyn_peer[178] 	lookupTimeSig:mean 	1.2
scalar Network.dyn_peer[178] 	lookupStabilitySig:mean 	-0.15833330154419
scalar Network.dyn_peer[178] 	lookupHopsSig:mean 	11.5
scalar Network.dyn_peer[179] 	lookupTimeSig:mean 	0.8875
scalar Network.dyn_peer[179] 	lookupStabilitySig:mean 	0.65817945590243
scalar Network.dyn_peer[179] 	lookupHopsSig:mean 	8
scalar Network.dyn_peer[180] 	lookupTimeSig:mean 	1.0454545454545
scalar Network.dyn_peer[180] 	lookupStabilitySig:mean 	0.80299540393224
scalar Network.dyn_peer[180] 	lookupHopsSig:mean 	9.5454545454545
scalar Network.dyn_peer[181] 	lookupTimeSig:mean 	1.4875
scalar Network.dyn_peer[181] 	lookupStabilitySig:mean 	0.82292389334179
scalar Network.dyn_peer[181] 	lookupHopsSig:mean 	14
scalar Network.dyn_peer[182] 	lookupTimeSig:mean 	0.97857142857143
scalar Network.dyn_peer[182] 	lookupStabilitySig:mean 	0.85338112731863
scalar Network.dyn_peer[182] 	lookupHopsSig:mean 	8.8571428571429
scalar Network.dyn_peer[183] 	lookupTimeSig:mean 	1.5666666666667
scalar Network.dyn_peer[183] 	lookupStabilitySig:mean 	0.26225747664769
scalar Network.dyn_peer[183] 	lookupHopsSig:mean 	15
scalar Network.dyn_peer[184] 	lookupTimeSig:mean 	1.2166666666667
scalar Network.dyn_peer[184] 	lookupStabilitySig:mean 	0.62627009861171
scalar Network.dyn_peer[184] 	lookupHopsSig:mean 	11.333333333333
scalar Network.dyn_peer[185] 	lookupTimeSig:mean 	2.25
scalar Network.dyn_peer[185] 	lookupStabilitySig:mean 	0.58350515365601
scalar Network.dyn_peer[185] 	lookupHopsSig:mean 	22
scalar Network.dyn_peer[186] 	lookupTimeSig:mean 	0.99090909090909
scalar Network.dyn_peer[186] 	lookupStabilitySig:mean 	0.72696541300551
scalar Network.dyn_peer[186] 	lookupHopsSig:mean 	9
scalar Network.dyn_peer[187] 	lookupTimeSig:mean 	1.175
scalar Network.dyn_peer[187] 	lookupStabilitySig:mean 	0.63156296126544
scalar Network.dyn_peer[187] 	lookupHopsSig:mean 	11
scalar Network.dyn_peer[188] 	lookupTimeSig:mean 	1.3666666666667
scalar Network.dyn_peer[188] 	lookupStabilitySig:mean 	0.82328631728888
scalar Network.dyn_peer[188] 	lookupHopsSig:mean 	12.833333333333
scalar Network.dyn_peer[189] 	lookupTimeSig:mean 	1.6666666666667
scalar Network.dyn_peer[189] 	lookupStabilitySig:mean 	0.3105820119381
scalar Network.dyn_peer[189] 	lookupHopsSig:mean 	16
scalar Network.dyn_peer[190] 	lookupTimeSig:mean 	1.4
scalar Network.dyn_peer[190] 	lookupStabilitySig:mean 	0.84481355692777
scalar Network.dyn_peer[190] 	lookupHopsSig:mean 	13.111111111111
scalar Network.dyn_peer[191] 	lookupTimeSig:mean 	1.7
scalar Network.dyn_peer[191] 	lookupStabilitySig:mean 	0.4505233950913
scalar Network.dyn_peer[191] 	lookupHopsSig:mean 	16.25
scalar Network.dyn_peer[192] 	lookupTimeSig:mean 	1.025
scalar Network.dyn_peer[192] 	lookupStabilitySig:mean 	0.41268314793706
scalar Network.dyn_peer[192] 	lookupHopsSig:mean 	9.5
scalar Network.dyn_peer[193] 	lookupTimeSig:mean 	1.28
scalar Network.dyn_peer[193] 	lookupStabilitySig:mean 	0.63524150252342
scalar Network.dyn_peer[193] 	lookupHopsSig:mean 	12
scalar Network.dyn_peer[194] 	lookupTimeSig:mean 	1.0333333333333
scalar Network.dyn_peer[194] 	lookupStabilitySig:mean 	0.071759258707364
scalar Network.dyn_peer[194] 	lookupHopsSig:mean 	9.6666666666667
scalar Network.dyn_peer[195] 	lookupTimeSig:mean 	1.5375
scalar Network.dyn_peer[195] 	lookupStabilitySig:mean 	0.77462098374963
scalar Network.dyn_peer[195] 	lookupHopsSig:mean 	14.5
scalar Network.dyn_peer[196] 	lookupTimeSig:mean 	0.88888888888889
scalar Network.dyn_peer[196] 	lookupStabilitySig:mean 	0.70189317861675
scalar Network.dyn_peer[196] 	lookupHopsSig:mean 	8
scalar Network.dyn_peer[197] 	lookupTimeSig:mean 	1.95
scalar Network.dyn_peer[197] 	lookupStabilitySig:mean 	0.87405443098396
scalar Network.dyn_peer[197] 	lookupHopsSig:mean 	18.75
scalar Network.dyn_peer[198] 	lookupTimeSig:mean 	1.4
scalar Network.dyn_peer[198] 	lookupStabilitySig:mean 	0.71749617004146
scalar Network.dyn_peer[198] 	lookupHopsSig:mean 	13.166666666667
scalar Network.dyn_peer[199] 	lookupTimeSig:mean 	2.3333333333333
scalar Network.dyn_peer[199] 	lookupStabilitySig:mean 	0.79447649884969
scalar Network.dyn_peer[199] 	lookupHopsSig:mean 	22.666666666667
scalar Network.dyn_peer[200] 	lookupTimeSig:mean 	1.1375
scalar Network.dyn_peer[200] 	lookupStabilitySig:mean 	0.71637769241352
scalar Network.dyn_peer[200] 	lookupHopsSig:mean 	10.5
scalar Network.dyn_peer[201] 	lookupTimeSig:mean 	1.9333333333333
scalar Network.dyn_peer[201] 	lookupStabilitySig:mean 	0.58090795576572
scalar Network.dyn_peer[201] 	lookupHopsSig:mean 	18.666666666667
scalar Network.dyn_peer[202] 	lookupTimeSig:mean 	1.5666666666667
scalar Network.dyn_peer[202] 	lookupStabilitySig:mean 	0.82893997813678
scalar Network.dyn_peer[202] 	lookupHopsSig:mean 	14.777777777778
scalar Network.dyn_peer[203] 	lookupTimeSig:mean 	1.5625
scalar Network.dyn_peer[203] 	lookupStabilitySig:mean 	0.71704535605386
scalar Network.dyn_peer[203] 	lookupHopsSig:mean 	14.75
scalar Network.dyn_peer[204] 	lookupTimeSig:mean 	1.275
scalar Network.dyn_peer[204] 	lookupStabilitySig:mean 	0.32582825515419
scalar Network.dyn_peer[204] 	lookupHopsSig:mean 	12
scalar Network.dyn_peer[205] 	lookupTimeSig:mean 	1.375
scalar Network.dyn_peer[205] 	lookupStabilitySig:mean 	0.35534725338221
scalar Network.dyn_peer[205] 	lookupHopsSig:mean 	13
scalar Network.dyn_peer[206] 	lookupTimeSig:mean 	1.1923076923077
scalar Network.dyn_peer[206] 	lookupStabilitySig:mean 	0.80201542198371
scalar Network.dyn_peer[206] 	lookupHopsSig:mean 	11
scalar Network.dyn_peer[207] 	lookupTimeSig:mean 	1
scalar Network.dyn_peer[207] 	lookupStabilitySig:mean 	0.45713561475277
scalar Network.dyn_peer[207] 	lookupHopsSig:mean 	9.2
scalar Network.dyn_peer[208] 	lookupTimeSig:mean 	1.4333333333333
scalar Network.dyn_peer[208] 	lookupStabilitySig:mean 	0.6616882183589
scalar Network.dyn_peer[208] 	lookupHopsSig:mean 	13.5
scalar Network.dyn_peer[209] 	lookupTimeSig:mean 	1.9
scalar Network.dyn_peer[209] 	lookupStabilitySig:mean 	0.45045925925175
scalar Network.dyn_peer[209] 	lookupHopsSig:mean 	18.333333333333
scalar Network.dyn_peer[210] 	lookupTimeSig:mean 	1.3
scalar Network.dyn_peer[210] 	lookupStabilitySig:mean 	0.565509840101
scalar Network.dyn_peer[210] 	lookupHopsSig:mean 	12.2
scalar Network.dyn_peer[211] 	lookupTimeSig:mean 	2.2
scalar Network.dyn_peer[211] 	lookupStabilitySig:mean 	0.91672492931996
scalar Network.dyn_peer[211] 	lookupHopsSig:mean 	21.142857142857
scalar Network.dyn_peer[212] 	lookupTimeSig:mean 	2.2333333333333
scalar Network.dyn_peer[212] 	lookupStabilitySig:mean 	0.41812865436077
scalar Network.dyn_peer[212] 	lookupHopsSig:mean 	21.666666666667
scalar Network.dyn_peer[213] 	lookupTimeSig:mean 	1.325
scalar Network.dyn_peer[213] 	lookupStabilitySig:mean 	0.5233528893441
scalar Network.dyn_peer[213] 	lookupHopsSig:mean 	12.5
scalar Network.dyn_peer[214] 	lookupTimeSig:mean 	1.2
scalar Network.dyn_peer[214] 	lookupStabilitySig:mean 	0.2339181303978
scalar Network.dyn_peer[214] 	lookupHopsSig:mean 	11.333333333333
scalar Network.dyn_peer[215] 	lookupTimeSig:mean 	1.9
scalar Network.dyn_peer[215] 	lookupStabilitySig:mean 	0.078019022941589
scalar Network.dyn_peer[215] 	lookupHopsSig:mean 	18.5
scalar Network.dyn_peer[216] 	lookupTimeSig:mean 	1.31
scalar Network.dyn_peer[216] 	lookupStabilitySig:mean 	0.87959069972858
scalar Network.dyn_peer[216] 	lookupHopsSig:mean 	12.2
scalar Network.dyn_peer[217] 	lookupTimeSig:mean 	1.7
scalar Network.dyn_peer[217] 	lookupStabilitySig:mean 	0.51624431709448
scalar Network.dyn_peer[217] 	lookupHopsSig:mean 	16.333333333333
scalar Network.dyn_peer[218] 	lookupTimeSig:mean 	1.3571428571429
scalar Network.dyn_peer[218] 	lookupStabilitySig:mean 	0.88662961657558
scalar Network.dyn_peer[218] 	lookupHopsSig:mean 	12.714285714286
scalar Network.dyn_peer[219] 	lookupTimeSig:mean 	1.85
scalar Network.dyn_peer[219] 	lookupStabilitySig:mean 	0.41898149251938
scalar Network.dyn_peer[219] 	lookupHopsSig:mean 	18
scalar Network.dyn_peer[220] 	lookupTimeSig:mean 	2.14
scalar Network.dyn_peer[220] 	lookupStabilitySig:mean 	0.73843710720539
scalar Network.dyn_peer[220] 	lookupHopsSig:mean 	20.6
scalar Network.dyn_peer[221] 	lookupTimeSig:mean 	1.28
scalar Network.dyn_peer[221] 	lookupStabilitySig:mean 	0.66696667745709
scalar Network.dyn_peer[221] 	lookupHopsSig:mean 	12
scalar Network.dyn_peer[222] 	lookupTimeSig:mean 	2.25
scalar Network.dyn_peer[222] 	lookupStabilitySig:mean 	0.018181800842285
scalar Network.dyn_peer[222] 	lookupHopsSig:mean 	22
scalar Network.dyn_peer[223] 	lookupTimeSig:mean 	0.92
scalar Network.dyn_peer[223] 	lookupStabilitySig:mean 	0.45044021680951
scalar Network.dyn_peer[223] 	lookupHopsSig:mean 	8.4
scalar Network.dyn_peer[224] 	lookupTimeSig:mean 	1.2
scalar Network.dyn_peer[224] 	lookupStabilitySig:mean 	0.17192980647087
scalar Network.dyn_peer[224] 	lookupHopsSig:mean 	11.333333333333
scalar Network.dyn_peer[225] 	lookupTimeSig:mean 	1.525
scalar Network.dyn_peer[225] 	lookupStabilitySig:mean 	0.73737380024977
scalar Network.dyn_peer[225] 	lookupHopsSig:mean 	14.375
scalar Network.dyn_peer[226] 	lookupTimeSig:mean 	1.3
scalar Network.dyn_peer[226] 	lookupStabilitySig:mean 	0.70363389767913
scalar Network.dyn_peer[226] 	lookupHopsSig:mean 	12.111111111111
scalar Network.dyn_peer[227] 	lookupTimeSig:mean 	1.63
scalar Network.dyn_peer[227] 	lookupStabilitySig:mean 	0.91240904442966
scalar Network.dyn_peer[227] 	lookupHopsSig:mean 	15.4
scalar Network.dyn_peer[228] 	lookupTimeSig:mean 	2.25
scalar Network.dyn_peer[228] 	lookupStabilitySig:mean 	0.43092560768127
scalar Network.dyn_peer[228] 	lookupHopsSig:mean 	21.75
scalar Network.dyn_peer[229] 	lookupTimeSig:mean 	1.5444444444444
scalar Network.dyn_peer[229] 	lookupStabilitySig:mean 	0.8754401395563
scalar Network.dyn_peer[229] 	lookupHopsSig:mean 	14.555555555556
scalar Network.dyn_peer[230] 	lookupTimeSig:mean 	1.58
scalar Network.dyn_peer[230] 	lookupStabilitySig:mean 	0.71592470519245
scalar Network.dyn_peer[230] 	lookupHopsSig:mean 	15
scalar Network.dyn_peer[231] 	lookupTimeSig:mean 	0.76666666666667
scalar Network.dyn_peer[231] 	lookupStabilitySig:mean 	0.21746030449867
scalar Network.dyn_peer[231] 	lookupHopsSig:mean 	7
scalar Network.dyn_peer[232] 	lookupTimeSig:mean 	2.175
scalar Network.dyn_peer[232] 	lookupStabilitySig:mean 	0.52399360388517
scalar Network.dyn_peer[232] 	lookupHopsSig:mean 	21
scalar Network.dyn_peer[233] 	lookupTimeSig:mean 	1.3222222222222
scalar Network.dyn_peer[233] 	lookupStabilitySig:mean 	0.8789683089902
scalar Network.dyn_peer[233] 	lookupHopsSig:mean 	12.333333333333
scalar Network.dyn_peer[234] 	lookupTimeSig:mean 	1.43
scalar Network.dyn_peer[234] 	lookupStabilitySig:mean 	0.80075196775142
scalar Network.dyn_peer[234] 	lookupHopsSig:mean 	13.4
scalar Network.dyn_peer[235] 	lookupTimeSig:mean 	2.1
scalar Network.dyn_peer[235] 	lookupStabilitySig:mean 	0.0035714209079742
scalar Network.dyn_peer[235] 	lookupHopsSig:mean 	20.5
scalar Network.dyn_peer[236] 	lookupTimeSig:mean 	1.5285714285714
scalar Network.dyn_peer[236] 	lookupStabilitySig:mean 	0.88552225647228
scalar Network.dyn_peer[236] 	lookupHopsSig:mean 	14.428571428571
scalar Network.dyn_peer[237] 	lookupTimeSig:mean 	1.4375
scalar Network.dyn_peer[237] 	lookupStabilitySig:mean 	0.9013072475791
scalar Network.dyn_peer[237] 	lookupHopsSig:mean 	13.5
scalar Network.dyn_peer[238] 	lookupTimeSig:mean 	2.1666666666667
scalar Network.dyn_peer[238] 	lookupStabilitySig:mean 	0.23686870435874
scalar Network.dyn_peer[238] 	lookupHopsSig:mean 	21
scalar Network.dyn_peer[239] 	lookupTimeSig:mean 	1.4428571428571
scalar Network.dyn_peer[239] 	lookupStabilitySig:mean 	0.68712447503848
scalar Network.dyn_peer[239] 	lookupHopsSig:mean 	13.571428571429
scalar Network.dyn_peer[240] 	lookupTimeSig:mean 	0.95
scalar Network.dyn_peer[240] 	lookupStabilitySig:mean 	0.41895120590925
scalar Network.dyn_peer[240] 	lookupHopsSig:mean 	8.75
scalar Network.dyn_peer[241] 	lookupTimeSig:mean 	1.8
scalar Network.dyn_peer[241] 	lookupStabilitySig:mean 	0.57367150578648
scalar Network.dyn_peer[241] 	lookupHopsSig:mean 	17.25
scalar Network.dyn_peer[242] 	lookupTimeSig:mean 	1.34
scalar Network.dyn_peer[242] 	lookupStabilitySig:mean 	0.72769350633025
scalar Network.dyn_peer[242] 	lookupHopsSig:mean 	12.6
scalar Network.dyn_peer[243] 	lookupTimeSig:mean 	1.1625
scalar Network.dyn_peer[243] 	lookupStabilitySig:mean 	0.78517614834709
scalar Network.dyn_peer[243] 	lookupHopsSig:mean 	10.75
scalar Network.dyn_peer[244] 	lookupTimeSig:mean 	1.9
scalar Network.dyn_peer[244] 	lookupStabilitySig:mean 	0.83938157279044
scalar Network.dyn_peer[244] 	lookupHopsSig:mean 	18.2
scalar Network.dyn_peer[245] 	lookupTimeSig:mean 	0.92222222222222
scalar Network.dyn_peer[245] 	lookupStabilitySig:mean 	0.71736128307465
scalar Network.dyn_peer[245] 	lookupHopsSig:mean 	8.3333333333333
scalar Network.dyn_peer[246] 	lookupTimeSig:mean 	1.5857142857143
scalar Network.dyn_peer[246] 	lookupStabilitySig:mean 	0.68702892905899
scalar Network.dyn_peer[246] 	lookupHopsSig:mean 	15
scalar Network.dyn_peer[247] 	lookupTimeSig:mean 	0.85
scalar Network.dyn_peer[247] 	lookupStabilitySig:mean 	0.46562498807907
scalar Network.dyn_peer[247] 	lookupHopsSig:mean 	7.75
scalar Network.dyn_peer[248] 	lookupTimeSig:mean 	1.1428571428571
scalar Network.dyn_peer[248] 	lookupStabilitySig:mean 	0.86654252213027
scalar Network.dyn_peer[248] 	lookupHopsSig:mean 	10.571428571429
scalar Network.dyn_peer[249] 	lookupTimeSig:mean 	0.96666666666667
scalar Network.dyn_peer[249] 	lookupStabilitySig:mean 	0.23897849520048
scalar Network.dyn_peer[249] 	lookupHopsSig:mean 	9
scalar Network.dyn_peer[250] 	lookupTimeSig:mean 	1.6142857142857
scalar Network.dyn_peer[250] 	lookupStabilitySig:mean 	0.61953933151173
scalar Network.dyn_peer[250] 	lookupHopsSig:mean 	15.285714285714
scalar Network.dyn_peer[251] 	lookupTimeSig:mean 	1.85
scalar Network.dyn_peer[251] 	lookupStabilitySig:mean 	0.46184094808996
scalar Network.dyn_peer[251] 	lookupHopsSig:mean 	17.75
scalar Network.dyn_peer[252] 	lookupTimeSig:mean 	1.4
scalar Network.dyn_peer[252] 	lookupStabilitySig:mean 	0.79236775210926
scalar Network.dyn_peer[252] 	lookupHopsSig:mean 	13.142857142857
scalar Network.dyn_peer[253] 	lookupTimeSig:mean 	1.125
scalar Network.dyn_peer[253] 	lookupStabilitySig:mean 	0.57430456951261
scalar Network.dyn_peer[253] 	lookupHopsSig:mean 	10.5
scalar Network.dyn_peer[254] 	lookupTimeSig:mean 	1.0833333333333
scalar Network.dyn_peer[254] 	lookupStabilitySig:mean 	0.52404824147622
scalar Network.dyn_peer[254] 	lookupHopsSig:mean 	10
scalar Network.dyn_peer[255] 	lookupTimeSig:mean 	1.6428571428571
scalar Network.dyn_peer[255] 	lookupStabilitySig:mean 	0.82076386980979
scalar Network.dyn_peer[255] 	lookupHopsSig:mean 	15.571428571429
scalar Network.dyn_peer[256] 	lookupTimeSig:mean 	2.9
scalar Network.dyn_peer[256] 	lookupStabilitySig:mean 	0.60513512045145
scalar Network.dyn_peer[256] 	lookupHopsSig:mean 	28.5
scalar Network.dyn_peer[257] 	lookupTimeSig:mean 	2.6
scalar Network.dyn_peer[257] 	lookupStabilitySig:mean 	0.61321777105331
scalar Network.dyn_peer[257] 	lookupHopsSig:mean 	25.5
scalar Network.dyn_peer[258] 	lookupTimeSig:mean 	1.45
scalar Network.dyn_peer[258] 	lookupStabilitySig:mean 	-0.11250001192093
scalar Network.dyn_peer[258] 	lookupHopsSig:mean 	14
scalar Network.dyn_peer[259] 	lookupTimeSig:mean 	1.44
scalar Network.dyn_peer[259] 	lookupStabilitySig:mean 	0.84311388134956
scalar Network.dyn_peer[259] 	lookupHopsSig:mean 	13.6
scalar Network.dyn_peer[260] 	lookupTimeSig:mean 	1.5333333333333
scalar Network.dyn_peer[260] 	lookupStabilitySig:mean 	0.29990795999765
scalar Network.dyn_peer[260] 	lookupHopsSig:mean 	14.666666666667
scalar Network.dyn_peer[261] 	lookupTimeSig:mean 	0.825
scalar Network.dyn_peer[261] 	lookupStabilitySig:mean 	0.44771241769195
scalar Network.dyn_peer[261] 	lookupHopsSig:mean 	7.5
scalar Network.dyn_peer[262] 	lookupTimeSig:mean 	1.55
scalar Network.dyn_peer[262] 	lookupStabilitySig:mean 	0.8828423366067
scalar Network.dyn_peer[262] 	lookupHopsSig:mean 	14.625
scalar Network.dyn_peer[263] 	lookupTimeSig:mean 	1.675
scalar Network.dyn_peer[263] 	lookupStabilitySig:mean 	0.72218335745856
scalar Network.dyn_peer[263] 	lookupHopsSig:mean 	15.875
scalar Network.dyn_peer[264] 	lookupTimeSig:mean 	1.625
scalar Network.dyn_peer[264] 	lookupStabilitySig:mean 	0.87205563229509
scalar Network.dyn_peer[264] 	lookupHopsSig:mean 	15.375
scalar Network.dyn_peer[265] 	lookupTimeSig:mean 	1.2111111111111
scalar Network.dyn_peer[265] 	lookupStabilitySig:mean 	0.7503528630154
scalar Network.dyn_peer[265] 	lookupHopsSig:mean 	11.222222222222
scalar Network.dyn_peer[266] 	lookupTimeSig:mean 	0.98333333333333
scalar Network.dyn_peer[266] 	lookupStabilitySig:mean 	0.61404101892064
scalar Network.dyn_peer[266] 	lookupHopsSig:mean 	9
scalar Network.dyn_peer[267] 	lookupTimeSig:mean 	1.1777777777778
scalar Network.dyn_peer[267] 	lookupStabilitySig:mean 	0.80197338366674
scalar Network.dyn_peer[267] 	lookupHopsSig:mean 	10.888888888889
scalar Network.dyn_peer[268] 	lookupTimeSig:mean 	1.4181818181818
scalar Network.dyn_peer[268] 	lookupStabilitySig:mean 	0.94119450830939
scalar Network.dyn_peer[268] 	lookupHopsSig:mean 	13.272727272727
scalar Network.dyn_peer[269] 	lookupTimeSig:mean 	1.6
scalar Network.dyn_peer[269] 	lookupStabilitySig:mean 	0.7886598713696
scalar Network.dyn_peer[269] 	lookupHopsSig:mean 	15.2
scalar Network.dyn_peer[270] 	lookupTimeSig:mean 	1.3571428571429
scalar Network.dyn_peer[270] 	lookupStabilitySig:mean 	0.90475906990469
scalar Network.dyn_peer[270] 	lookupHopsSig:mean 	12.714285714286
scalar Network.dyn_peer[271] 	lookupTimeSig:mean 	1.7
scalar Network.dyn_peer[271] 	lookupStabilitySig:mean 	0.91746143797146
scalar Network.dyn_peer[271] 	lookupHopsSig:mean 	16.142857142857
scalar Network.dyn_peer[272] 	lookupTimeSig:mean 	1.8
scalar Network.dyn_peer[272] 	lookupStabilitySig:mean 	0.85446278995369
scalar Network.dyn_peer[272] 	lookupHopsSig:mean 	17.125
scalar Network.dyn_peer[273] 	lookupTimeSig:mean 	1.2
scalar Network.dyn_peer[273] 	lookupStabilitySig:mean 	0.82922523856784
scalar Network.dyn_peer[273] 	lookupHopsSig:mean 	11.166666666667
scalar Network.dyn_peer[274] 	lookupTimeSig:mean 	1.6428571428571
scalar Network.dyn_peer[274] 	lookupStabilitySig:mean 	0.90959641337395
scalar Network.dyn_peer[274] 	lookupHopsSig:mean 	15.571428571429
scalar Network.dyn_peer[275] 	lookupTimeSig:mean 	1.6
scalar Network.dyn_peer[275] 	lookupStabilitySig:mean 	0.92975579760969
scalar Network.dyn_peer[275] 	lookupHopsSig:mean 	15.1
scalar Network.dyn_peer[276] 	lookupTimeSig:mean 	1.4
scalar Network.dyn_peer[276] 	lookupStabilitySig:mean 	0.53516812622547
scalar Network.dyn_peer[276] 	lookupHopsSig:mean 	13.2
scalar Network.dyn_peer[277] 	lookupTimeSig:mean 	1.5666666666667
scalar Network.dyn_peer[277] 	lookupStabilitySig:mean 	0.55176671346029
scalar Network.dyn_peer[277] 	lookupHopsSig:mean 	15
scalar Network.dyn_peer[278] 	lookupTimeSig:mean 	1.03
scalar Network.dyn_peer[278] 	lookupStabilitySig:mean 	0.78898976230994
scalar Network.dyn_peer[278] 	lookupHopsSig:mean 	9.4
scalar Network.dyn_peer[279] 	lookupTimeSig:mean 	1.2909090909091
scalar Network.dyn_peer[279] 	lookupStabilitySig:mean 	0.80334688189693
scalar Network.dyn_peer[279] 	lookupHopsSig:mean 	12
scalar Network.dyn_peer[280] 	lookupTimeSig:mean 	1.3
scalar Network.dyn_peer[280] 	lookupStabilitySig:mean 	0.71493183369083
scalar Network.dyn_peer[280] 	lookupHopsSig:mean 	12.142857142857
scalar Network.dyn_peer[281] 	lookupTimeSig:mean 	0.8
scalar Network.dyn_peer[281] 	lookupStabilitySig:mean 	0.82177212254398
scalar Network.dyn_peer[281] 	lookupHopsSig:mean 	7.0909090909091
scalar Network.dyn_peer[282] 	lookupTimeSig:mean 	1.3222222222222
scalar Network.dyn_peer[282] 	lookupStabilitySig:mean 	0.73150775105589
scalar Network.dyn_peer[282] 	lookupHopsSig:mean 	12.333333333333
scalar Network.dyn_peer[283] 	lookupTimeSig:mean 	1.4666666666667
scalar Network.dyn_peer[283] 	lookupStabilitySig:mean 	0.18402779102325
scalar Network.dyn_peer[283] 	lookupHopsSig:mean 	14
scalar Network.dyn_peer[284] 	lookupTimeSig:mean 	1.7333333333333
scalar Network.dyn_peer[284] 	lookupStabilitySig:mean 	0.68147825822234
scalar Network.dyn_peer[284] 	lookupHopsSig:mean 	16.5
scalar Network.dyn_peer[285] 	lookupTimeSig:mean 	1.7666666666667
scalar Network.dyn_peer[285] 	lookupStabilitySig:mean 	0.5780810204645
scalar Network.dyn_peer[285] 	lookupHopsSig:mean 	17
scalar Network.dyn_peer[286] 	lookupTimeSig:mean 	1.325
scalar Network.dyn_peer[286] 	lookupStabilitySig:mean 	0.50755494646728
scalar Network.dyn_peer[286] 	lookupHopsSig:mean 	12.5
scalar Network.dyn_peer[287] 	lookupTimeSig:mean 	1.05
scalar Network.dyn_peer[287] 	lookupStabilitySig:mean 	0.66888800053857
scalar Network.dyn_peer[287] 	lookupHopsSig:mean 	9.625
scalar Network.dyn_peer[288] 	lookupTimeSig:mean 	1.3428571428571
scalar Network.dyn_peer[288] 	lookupStabilitySig:mean 	0.84670830810709
scalar Network.dyn_peer[288] 	lookupHopsSig:mean 	12.571428571429
scalar Network.dyn_peer[289] 	lookupTimeSig:mean 	1.5454545454545
scalar Network.dyn_peer[289] 	lookupStabilitySig:mean 	0.93299489260905
scalar Network.dyn_peer[289] 	lookupHopsSig:mean 	14.545454545455
scalar Network.dyn_peer[290] 	lookupTimeSig:mean 	3.2666666666667
scalar Network.dyn_peer[290] 	lookupStabilitySig:mean 	0.34647886951764
scalar Network.dyn_peer[290] 	lookupHopsSig:mean 	32
scalar Network.dyn_peer[291] 	lookupTimeSig:mean 	1.71
scalar Network.dyn_peer[291] 	lookupStabilitySig:mean 	0.91630537640303
scalar Network.dyn_peer[291] 	lookupHopsSig:mean 	16.2
scalar Network.dyn_peer[292] 	lookupTimeSig:mean 	1.3642857142857
scalar Network.dyn_peer[292] 	lookupStabilitySig:mean 	0.88967794326267
scalar Network.dyn_peer[292] 	lookupHopsSig:mean 	12.714285714286
scalar Network.dyn_peer[293] 	lookupTimeSig:mean 	1.9181818181818
scalar Network.dyn_peer[293] 	lookupStabilitySig:mean 	0.91693962771784
scalar Network.dyn_peer[293] 	lookupHopsSig:mean 	18.272727272727
scalar Network.dyn_peer[294] 	lookupTimeSig:mean 	1.2571428571429
scalar Network.dyn_peer[294] 	lookupStabilitySig:mean 	0.71493016183376
scalar Network.dyn_peer[294] 	lookupHopsSig:mean 	11.714285714286
scalar Network.dyn_peer[295] 	lookupTimeSig:mean 	1.3888888888889
scalar Network.dyn_peer[295] 	lookupStabilitySig:mean 	0.89070657288863
scalar Network.dyn_peer[295] 	lookupHopsSig:mean 	13
scalar Network.dyn_peer[296] 	lookupTimeSig:mean 	1.2285714285714
scalar Network.dyn_peer[296] 	lookupStabilitySig:mean 	0.71549130191228
scalar Network.dyn_peer[296] 	lookupHopsSig:mean 	11.428571428571
scalar Network.dyn_peer[297] 	lookupTimeSig:mean 	2.0666666666667
scalar Network.dyn_peer[297] 	lookupStabilitySig:mean 	0.65102041512728
scalar Network.dyn_peer[297] 	lookupHopsSig:mean 	20
scalar Network.dyn_peer[298] 	lookupTimeSig:mean 	1.9666666666667
scalar Network.dyn_peer[298] 	lookupStabilitySig:mean 	0.76756788541873
scalar Network.dyn_peer[298] 	lookupHopsSig:mean 	19
scalar Network.dyn_peer[299] 	lookupTimeSig:mean 	1.3285714285714
scalar Network.dyn_peer[299] 	lookupStabilitySig:mean 	0.83488425027047
scalar Network.dyn_peer[299] 	lookupHopsSig:mean 	12.428571428571
scalar Network.dyn_peer[300] 	lookupTimeSig:mean 	1.05
scalar Network.dyn_peer[300] 	lookupStabilitySig:mean 	0.4465972171165
scalar Network.dyn_peer[300] 	lookupHopsSig:mean 	9.75
scalar Network.dyn_peer[301] 	lookupTimeSig:mean 	1.6714285714286
scalar Network.dyn_peer[301] 	lookupStabilitySig:mean 	0.89187402916806
scalar Network.dyn_peer[301] 	lookupHopsSig:mean 	15.857142857143
scalar Network.dyn_peer[302] 	lookupTimeSig:mean 	1.7142857142857
scalar Network.dyn_peer[302] 	lookupStabilitySig:mean 	0.90133109901633
scalar Network.dyn_peer[302] 	lookupHopsSig:mean 	16.285714285714
scalar Network.dyn_peer[303] 	lookupTimeSig:mean 	2.18
scalar Network.dyn_peer[303] 	lookupStabilitySig:mean 	0.6578364610672
scalar Network.dyn_peer[303] 	lookupHopsSig:mean 	21
scalar Network.dyn_peer[304] 	lookupTimeSig:mean 	1.8666666666667
scalar Network.dyn_peer[304] 	lookupStabilitySig:mean 	0.25309802095095
scalar Network.dyn_peer[304] 	lookupHopsSig:mean 	18
scalar Network.dyn_peer[305] 	lookupTimeSig:mean 	1.2555555555556
scalar Network.dyn_peer[305] 	lookupStabilitySig:mean 	0.73255681189605
scalar Network.dyn_peer[305] 	lookupHopsSig:mean 	11.666666666667
scalar Network.dyn_peer[306] 	lookupTimeSig:mean 	1.9125
scalar Network.dyn_peer[306] 	lookupStabilitySig:mean 	0.90751416375861
scalar Network.dyn_peer[306] 	lookupHopsSig:mean 	18.25
scalar Network.dyn_peer[307] 	lookupTimeSig:mean 	1.0888888888889
scalar Network.dyn_peer[307] 	lookupStabilitySig:mean 	0.79846163238916
scalar Network.dyn_peer[307] 	lookupHopsSig:mean 	10
scalar Network.dyn_peer[308] 	lookupTimeSig:mean 	1.9142857142857
scalar Network.dyn_peer[308] 	lookupStabilitySig:mean 	0.84516620423113
scalar Network.dyn_peer[308] 	lookupHopsSig:mean 	18.285714285714
scalar Network.dyn_peer[309] 	lookupTimeSig:mean 	1.525
scalar Network.dyn_peer[309] 	lookupStabilitySig:mean 	0.32788267172873
scalar Network.dyn_peer[309] 	lookupHopsSig:mean 	14.5
scalar Network.dyn_peer[310] 	lookupTimeSig:mean 	1.7
scalar Network.dyn_peer[310] 	lookupStabilitySig:mean 	0.076923072338104
scalar Network.dyn_peer[310] 	lookupHopsSig:mean 	16.5
scalar Network.dyn_peer[311] 	lookupTimeSig:mean 	1.225
scalar Network.dyn_peer[311] 	lookupStabilitySig:mean 	0.57168174860999
scalar Network.dyn_peer[311] 	lookupHopsSig:mean 	11.5
scalar Network.dyn_peer[312] 	lookupTimeSig:mean 	1.5875
scalar Network.dyn_peer[312] 	lookupStabilitySig:mean 	0.9288808836136
scalar Network.dyn_peer[312] 	lookupHopsSig:mean 	15
scalar Network.dyn_peer[313] 	lookupTimeSig:mean 	1.2333333333333
scalar Network.dyn_peer[313] 	lookupStabilitySig:mean 	0.46376810471217
scalar Network.dyn_peer[313] 	lookupHopsSig:mean 	11.666666666667
scalar Network.dyn_peer[314] 	lookupTimeSig:mean 	2.02
scalar Network.dyn_peer[314] 	lookupStabilitySig:mean 	0.79789978861809
scalar Network.dyn_peer[314] 	lookupHopsSig:mean 	19.4
scalar Network.dyn_peer[315] 	lookupTimeSig:mean 	1.475
scalar Network.dyn_peer[315] 	lookupStabilitySig:mean 	0.759748110082
scalar Network.dyn_peer[315] 	lookupHopsSig:mean 	14
scalar Network.dyn_peer[316] 	lookupTimeSig:mean 	1.7375
scalar Network.dyn_peer[316] 	lookupStabilitySig:mean 	0.80631152843125
scalar Network.dyn_peer[316] 	lookupHopsSig:mean 	16.5
scalar Network.dyn_peer[317] 	lookupTimeSig:mean 	1.6125
scalar Network.dyn_peer[317] 	lookupStabilitySig:mean 	0.90551257447805
scalar Network.dyn_peer[317] 	lookupHopsSig:mean 	15.25
scalar Network.dyn_peer[318] 	lookupTimeSig:mean 	1.0272727272727
scalar Network.dyn_peer[318] 	lookupStabilitySig:mean 	0.73383401656015
scalar Network.dyn_peer[318] 	lookupHopsSig:mean 	9.3636363636364
scalar Network.dyn_peer[319] 	lookupTimeSig:mean 	1.7857142857143
scalar Network.dyn_peer[319] 	lookupStabilitySig:mean 	0.84090975858271
scalar Network.dyn_peer[319] 	lookupHopsSig:mean 	17
scalar Network.dyn_peer[320] 	lookupTimeSig:mean 	2.55
scalar Network.dyn_peer[320] 	lookupStabilitySig:mean 	0.36723603308201
scalar Network.dyn_peer[320] 	lookupHopsSig:mean 	25
scalar Network.dyn_peer[321] 	lookupTimeSig:mean 	3.45
scalar Network.dyn_peer[321] 	lookupStabilitySig:mean 	0.75153453275561
scalar Network.dyn_peer[321] 	lookupHopsSig:mean 	34
scalar Network.dyn_peer[322] 	lookupTimeSig:mean 	1.2333333333333
scalar Network.dyn_peer[322] 	lookupStabilitySig:mean 	0.77594255392129
scalar Network.dyn_peer[322] 	lookupHopsSig:mean 	11.5
scalar Network.dyn_peer[323] 	lookupTimeSig:mean 	1.0714285714286
scalar Network.dyn_peer[323] 	lookupStabilitySig:mean 	0.78683630749583
scalar Network.dyn_peer[323] 	lookupHopsSig:mean 	9.8571428571429
scalar Network.dyn_peer[324] 	lookupTimeSig:mean 	2.2
scalar Network.dyn_peer[324] 	lookupStabilitySig:mean 	0.10999999940395
scalar Network.dyn_peer[324] 	lookupHopsSig:mean 	21.5
scalar Network.dyn_peer[325] 	lookupTimeSig:mean 	1.04
scalar Network.dyn_peer[325] 	lookupStabilitySig:mean 	0.48010203838348
scalar Network.dyn_peer[325] 	lookupHopsSig:mean 	9.6
scalar Network.dyn_peer[326] 	lookupTimeSig:mean 	1.4769230769231
scalar Network.dyn_peer[326] 	lookupStabilitySig:mean 	0.95765738404141
scalar Network.dyn_peer[326] 	lookupHopsSig:mean 	13.846153846154
scalar Network.dyn_peer[327] 	lookupTimeSig:mean 	2.225
scalar Network.dyn_peer[327] 	lookupStabilitySig:mean 	0.61541462875903
scalar Network.dyn_peer[327] 	lookupHopsSig:mean 	21.5
scalar Network.dyn_peer[328] 	lookupTimeSig:mean 	1.35
scalar Network.dyn_peer[328] 	lookupStabilitySig:mean 	0.73121165204793
scalar Network.dyn_peer[328] 	lookupHopsSig:mean 	12.75
scalar Network.dyn_peer[329] 	lookupTimeSig:mean 	0.92
scalar Network.dyn_peer[329] 	lookupStabilitySig:mean 	0.73552250666544
scalar Network.dyn_peer[329] 	lookupHopsSig:mean 	8.3
scalar Network.dyn_peer[330] 	lookupTimeSig:mean 	1.85
scalar Network.dyn_peer[330] 	lookupStabilitySig:mean 	0.81637785816565
scalar Network.dyn_peer[330] 	lookupHopsSig:mean 	17.75
scalar Network.dyn_peer[331] 	lookupTimeSig:mean 	1.625
scalar Network.dyn_peer[331] 	lookupStabilitySig:mean 	0.46809884998947
scalar Network.dyn_peer[331] 	lookupHopsSig:mean 	15.5
scalar Network.dyn_peer[332] 	lookupTimeSig:mean 	1.45
scalar Network.dyn_peer[332] 	lookupStabilitySig:mean 	0.53315507248044
scalar Network.dyn_peer[332] 	lookupHopsSig:mean 	13.75
scalar Network.dyn_peer[333] 	lookupTimeSig:mean 	0.93333333333333
scalar Network.dyn_peer[333] 	lookupStabilitySig:mean 	0.5444444467624
scalar Network.dyn_peer[333] 	lookupHopsSig:mean 	8.6666666666667
scalar Network.dyn_peer[334] 	lookupTimeSig:mean 	1.3
scalar Network.dyn_peer[334] 	lookupStabilitySig:mean 	0.57788950329026
scalar Network.dyn_peer[334] 	lookupHopsSig:mean 	12.166666666667
scalar Network.dyn_peer[335] 	lookupTimeSig:mean 	1.1857142857143
scalar Network.dyn_peer[335] 	lookupStabilitySig:mean 	0.93122410069087
scalar Network.dyn_peer[335] 	lookupHopsSig:mean 	11
scalar Network.dyn_peer[336] 	lookupTimeSig:mean 	1.175
scalar Network.dyn_peer[336] 	lookupStabilitySig:mean 	0.44234145060182
scalar Network.dyn_peer[336] 	lookupHopsSig:mean 	11
scalar Network.dyn_peer[337] 	lookupTimeSig:mean 	1.6
scalar Network.dyn_peer[337] 	lookupStabilitySig:mean 	0.83170599595178
scalar Network.dyn_peer[337] 	lookupHopsSig:mean 	15.125
scalar Network.dyn_peer[338] 	lookupTimeSig:mean 	1.9142857142857
scalar Network.dyn_peer[338] 	lookupStabilitySig:mean 	0.9003635533154
scalar Network.dyn_peer[338] 	lookupHopsSig:mean 	18.285714285714
scalar Network.dyn_peer[339] 	lookupTimeSig:mean 	1.075
scalar Network.dyn_peer[339] 	lookupStabilitySig:mean 	0.41448005288839
scalar Network.dyn_peer[339] 	lookupHopsSig:mean 	10
scalar Network.dyn_peer[340] 	lookupTimeSig:mean 	0.96
scalar Network.dyn_peer[340] 	lookupStabilitySig:mean 	0.51033856272697
scalar Network.dyn_peer[340] 	lookupHopsSig:mean 	8.8
scalar Network.dyn_peer[341] 	lookupTimeSig:mean 	1.0833333333333
scalar Network.dyn_peer[341] 	lookupStabilitySig:mean 	0.60986013958851
scalar Network.dyn_peer[341] 	lookupHopsSig:mean 	10
scalar Network.dyn_peer[342] 	lookupTimeSig:mean 	2.18
scalar Network.dyn_peer[342] 	lookupStabilitySig:mean 	0.78042647466063
scalar Network.dyn_peer[342] 	lookupHopsSig:mean 	21
scalar Network.dyn_peer[343] 	lookupTimeSig:mean 	1.55
scalar Network.dyn_peer[343] 	lookupStabilitySig:mean 	0.66582862753421
scalar Network.dyn_peer[343] 	lookupHopsSig:mean 	14.625
scalar Network.dyn_peer[344] 	lookupTimeSig:mean 	0.925
scalar Network.dyn_peer[344] 	lookupStabilitySig:mean 	0.50170885724947
scalar Network.dyn_peer[344] 	lookupHopsSig:mean 	8.5
scalar Network.dyn_peer[345] 	lookupTimeSig:mean 	1.5428571428571
scalar Network.dyn_peer[345] 	lookupStabilitySig:mean 	0.94779558479786
scalar Network.dyn_peer[345] 	lookupHopsSig:mean 	14.5
scalar Network.dyn_peer[346] 	lookupTimeSig:mean 	1.22
scalar Network.dyn_peer[346] 	lookupStabilitySig:mean 	0.6374226052314
scalar Network.dyn_peer[346] 	lookupHopsSig:mean 	11.4
scalar Network.dyn_peer[347] 	lookupTimeSig:mean 	1.2333333333333
scalar Network.dyn_peer[347] 	lookupStabilitySig:mean 	0.35888053973516
scalar Network.dyn_peer[347] 	lookupHopsSig:mean 	11.666666666667
scalar Network.dyn_peer[348] 	lookupTimeSig:mean 	2.1
scalar Network.dyn_peer[348] 	lookupStabilitySig:mean 	0.38128509372473
scalar Network.dyn_peer[348] 	lookupHopsSig:mean 	20.25
scalar Network.dyn_peer[349] 	lookupTimeSig:mean 	1.825
scalar Network.dyn_peer[349] 	lookupStabilitySig:mean 	0.74562734831125
scalar Network.dyn_peer[349] 	lookupHopsSig:mean 	17.375
scalar Network.dyn_peer[350] 	lookupTimeSig:mean 	1.9625
scalar Network.dyn_peer[350] 	lookupStabilitySig:mean 	0.90312751033343
scalar Network.dyn_peer[350] 	lookupHopsSig:mean 	18.75
scalar Network.dyn_peer[351] 	lookupTimeSig:mean 	1.2222222222222
scalar Network.dyn_peer[351] 	lookupStabilitySig:mean 	0.83846215148353
scalar Network.dyn_peer[351] 	lookupHopsSig:mean 	11.333333333333
scalar Network.dyn_peer[352] 	lookupTimeSig:mean 	1.45
scalar Network.dyn_peer[352] 	lookupStabilitySig:mean 	0.63245074544102
scalar Network.dyn_peer[352] 	lookupHopsSig:mean 	13.666666666667
scalar Network.dyn_peer[353] 	lookupTimeSig:mean 	1.65
scalar Network.dyn_peer[353] 	lookupStabilitySig:mean 	0.55509413592517
scalar Network.dyn_peer[353] 	lookupHopsSig:mean 	15.75
scalar Network.dyn_peer[354] 	lookupTimeSig:mean 	1.3222222222222
scalar Network.dyn_peer[354] 	lookupStabilitySig:mean 	0.76293025346887
scalar Network.dyn_peer[354] 	lookupHopsSig:mean 	12.333333333333
scalar Network.dyn_peer[355] 	lookupTimeSig:mean 	1.2285714285714
scalar Network.dyn_peer[355] 	lookupStabilitySig:mean 	0.71001467920308
scalar Network.dyn_peer[355] 	lookupHopsSig:mean 	11.428571428571
scalar Network.dyn_peer[356] 	lookupTimeSig:mean 	1.5428571428571
scalar Network.dyn_peer[356] 	lookupStabilitySig:mean 	0.64863255460347
scalar Network.dyn_peer[356] 	lookupHopsSig:mean 	14.571428571429
scalar Network.dyn_peer[357] 	lookupTimeSig:mean 	2.0142857142857
scalar Network.dyn_peer[357] 	lookupStabilitySig:mean 	0.92209099206541
scalar Network.dyn_peer[357] 	lookupHopsSig:mean 	19.285714285714
scalar Network.dyn_peer[358] 	lookupTimeSig:mean 	1.45
scalar Network.dyn_peer[358] 	lookupStabilitySig:mean 	0.53622722998261
scalar Network.dyn_peer[358] 	lookupHopsSig:mean 	13.75
scalar Network.dyn_peer[359] 	lookupTimeSig:mean 	1.2
scalar Network.dyn_peer[359] 	lookupStabilitySig:mean 	0.60390709402661
scalar Network.dyn_peer[359] 	lookupHopsSig:mean 	11.166666666667
scalar Network.dyn_peer[360] 	lookupTimeSig:mean 	1.75
scalar Network.dyn_peer[360] 	lookupStabilitySig:mean 	0.018145158886909
scalar Network.dyn_peer[360] 	lookupHopsSig:mean 	17
scalar Network.dyn_peer[361] 	lookupTimeSig:mean 	2.52
scalar Network.dyn_peer[361] 	lookupStabilitySig:mean 	0.68240607343614
scalar Network.dyn_peer[361] 	lookupHopsSig:mean 	24.4
scalar Network.dyn_peer[362] 	lookupTimeSig:mean 	1.45
scalar Network.dyn_peer[362] 	lookupStabilitySig:mean 	0.52689086459577
scalar Network.dyn_peer[362] 	lookupHopsSig:mean 	13.75
scalar Network.dyn_peer[363] 	lookupTimeSig:mean 	1.2857142857143
scalar Network.dyn_peer[363] 	lookupStabilitySig:mean 	0.92434060121221
scalar Network.dyn_peer[363] 	lookupHopsSig:mean 	12
scalar Network.dyn_peer[364] 	lookupTimeSig:mean 	1.5083333333333
scalar Network.dyn_peer[364] 	lookupStabilitySig:mean 	0.9422715898448
scalar Network.dyn_peer[364] 	lookupHopsSig:mean 	14.166666666667
scalar Network.dyn_peer[365] 	lookupTimeSig:mean 	1.2166666666667
scalar Network.dyn_peer[365] 	lookupStabilitySig:mean 	0.6022851622353
scalar Network.dyn_peer[365] 	lookupHopsSig:mean 	11.333333333333
scalar Network.dyn_peer[366] 	lookupTimeSig:mean 	1.9
scalar Network.dyn_peer[366] 	lookupStabilitySig:mean 	0.77500006494423
scalar Network.dyn_peer[366] 	lookupHopsSig:mean 	18.166666666667
scalar Network.dyn_peer[367] 	lookupTimeSig:mean 	1.975
scalar Network.dyn_peer[367] 	lookupStabilitySig:mean 	0.50872807763517
scalar Network.dyn_peer[367] 	lookupHopsSig:mean 	19
scalar Network.dyn_peer[368] 	lookupTimeSig:mean 	1.8866666666667
scalar Network.dyn_peer[368] 	lookupStabilitySig:mean 	0.94075838848948
scalar Network.dyn_peer[368] 	lookupHopsSig:mean 	17.933333333333
scalar Network.dyn_peer[369] 	lookupTimeSig:mean 	1.625
scalar Network.dyn_peer[369] 	lookupStabilitySig:mean 	0.61083130165935
scalar Network.dyn_peer[369] 	lookupHopsSig:mean 	15.5
scalar Network.dyn_peer[370] 	lookupTimeSig:mean 	2.55
scalar Network.dyn_peer[370] 	lookupStabilitySig:mean 	0.67447916790843
scalar Network.dyn_peer[370] 	lookupHopsSig:mean 	25
scalar Network.dyn_peer[371] 	lookupTimeSig:mean 	1.4666666666667
scalar Network.dyn_peer[371] 	lookupStabilitySig:mean 	0.65458540210966
scalar Network.dyn_peer[371] 	lookupHopsSig:mean 	13.833333333333
scalar Network.dyn_peer[372] 	lookupTimeSig:mean 	1.3142857142857
scalar Network.dyn_peer[372] 	lookupStabilitySig:mean 	0.72153619171253
scalar Network.dyn_peer[372] 	lookupHopsSig:mean 	12.285714285714
scalar Network.dyn_peer[373] 	lookupTimeSig:mean 	1.1
scalar Network.dyn_peer[373] 	lookupStabilitySig:mean 	0.81188292725181
scalar Network.dyn_peer[373] 	lookupHopsSig:mean 	10.090909090909
scalar Network.dyn_peer[374] 	lookupTimeSig:mean 	1.4583333333333
scalar Network.dyn_peer[374] 	lookupStabilitySig:mean 	0.93174307125931
scalar Network.dyn_peer[374] 	lookupHopsSig:mean 	13.666666666667
scalar Network.dyn_peer[375] 	lookupTimeSig:mean 	1.75
scalar Network.dyn_peer[375] 	lookupStabilitySig:mean 	0.92666840609163
scalar Network.dyn_peer[375] 	lookupHopsSig:mean 	16.6
scalar Network.dyn_peer[376] 	lookupTimeSig:mean 	1.1166666666667
scalar Network.dyn_peer[376] 	lookupStabilitySig:mean 	0.84071879733043
scalar Network.dyn_peer[376] 	lookupHopsSig:mean 	10.333333333333
scalar Network.dyn_peer[377] 	lookupTimeSig:mean 	1.0555555555556
scalar Network.dyn_peer[377] 	lookupStabilitySig:mean 	0.81675060543542
scalar Network.dyn_peer[377] 	lookupHopsSig:mean 	9.6666666666667
scalar Network.dyn_peer[378] 	lookupTimeSig:mean 	1.4428571428571
scalar Network.dyn_peer[378] 	lookupStabilitySig:mean 	0.69873420894146
scalar Network.dyn_peer[378] 	lookupHopsSig:mean 	13.571428571429
scalar Network.dyn_peer[379] 	lookupTimeSig:mean 	1.1555555555556
scalar Network.dyn_peer[379] 	lookupStabilitySig:mean 	0.7975018615317
scalar Network.dyn_peer[379] 	lookupHopsSig:mean 	10.666666666667
scalar Network.dyn_peer[380] 	lookupTimeSig:mean 	1.5444444444444
scalar Network.dyn_peer[380] 	lookupStabilitySig:mean 	0.91426726808358
scalar Network.dyn_peer[380] 	lookupHopsSig:mean 	14.555555555556
scalar Network.dyn_peer[381] 	lookupTimeSig:mean 	0.98333333333333
scalar Network.dyn_peer[381] 	lookupStabilitySig:mean 	0.64065405105551
scalar Network.dyn_peer[381] 	lookupHopsSig:mean 	9
scalar Network.dyn_peer[382] 	lookupTimeSig:mean 	1.04
scalar Network.dyn_peer[382] 	lookupStabilitySig:mean 	0.58848090991378
scalar Network.dyn_peer[382] 	lookupHopsSig:mean 	9.6
scalar Network.dyn_peer[383] 	lookupTimeSig:mean 	1.5125
scalar Network.dyn_peer[383] 	lookupStabilitySig:mean 	0.75682237767614
scalar Network.dyn_peer[383] 	lookupHopsSig:mean 	14.25
scalar Network.dyn_peer[384] 	lookupTimeSig:mean 	1.19
scalar Network.dyn_peer[384] 	lookupStabilitySig:mean 	0.88914820607752
scalar Network.dyn_peer[384] 	lookupHopsSig:mean 	11
scalar Network.dyn_peer[385] 	lookupTimeSig:mean 	1.5363636363636
scalar Network.dyn_peer[385] 	lookupStabilitySig:mean 	0.83490140854635
scalar Network.dyn_peer[385] 	lookupHopsSig:mean 	14.454545454545
scalar Network.dyn_peer[386] 	lookupTimeSig:mean 	1.0625
scalar Network.dyn_peer[386] 	lookupStabilitySig:mean 	0.7876525708125
scalar Network.dyn_peer[386] 	lookupHopsSig:mean 	9.75
scalar Network.dyn_peer[387] 	lookupTimeSig:mean 	1.6888888888889
scalar Network.dyn_peer[387] 	lookupStabilitySig:mean 	0.78620726925631
scalar Network.dyn_peer[387] 	lookupHopsSig:mean 	16
scalar Network.dyn_peer[388] 	lookupTimeSig:mean 	0.9
scalar Network.dyn_peer[388] 	lookupStabilitySig:mean 	0.8137142601423
scalar Network.dyn_peer[388] 	lookupHopsSig:mean 	8.1
scalar Network.dyn_peer[389] 	lookupTimeSig:mean 	0.9
scalar Network.dyn_peer[389] 	lookupStabilitySig:mean 	0.32857140153646
scalar Network.dyn_peer[389] 	lookupHopsSig:mean 	8.5
scalar Network.dyn_peer[390] 	lookupTimeSig:mean 	1.04
scalar Network.dyn_peer[390] 	lookupStabilitySig:mean 	0.8007403222844
scalar Network.dyn_peer[390] 	lookupHopsSig:mean 	9.6
scalar Network.dyn_peer[391] 	lookupTimeSig:mean 	1.2285714285714
scalar Network.dyn_peer[391] 	lookupStabilitySig:mean 	0.74804646894336
scalar Network.dyn_peer[391] 	lookupHopsSig:mean 	11.428571428571
scalar Network.dyn_peer[392] 	lookupTimeSig:mean 	1.76
scalar Network.dyn_peer[392] 	lookupStabilitySig:mean 	0.8043772995472
scalar Network.dyn_peer[392] 	lookupHopsSig:mean 	16.7
scalar Network.dyn_peer[393] 	lookupTimeSig:mean 	1.29
scalar Network.dyn_peer[393] 	lookupStabilitySig:mean 	0.88340450678952
scalar Network.dyn_peer[393] 	lookupHopsSig:mean 	12
scalar Network.dyn_peer[394] 	lookupTimeSig:mean 	1.5909090909091
scalar Network.dyn_peer[394] 	lookupStabilitySig:mean 	0.93566859657453
scalar Network.dyn_peer[394] 	lookupHopsSig:mean 	15
scalar Network.dyn_peer[395] 	lookupTimeSig:mean 	1.81
scalar Network.dyn_peer[395] 	lookupStabilitySig:mean 	0.93580738119781
scalar Network.dyn_peer[395] 	lookupHopsSig:mean 	17.2
scalar Network.dyn_peer[396] 	lookupTimeSig:mean 	1.1
scalar Network.dyn_peer[396] 	lookupStabilitySig:mean 	0.5973880905658
scalar Network.dyn_peer[396] 	lookupHopsSig:mean 	10.25
scalar Network.dyn_peer[397] 	lookupTimeSig:mean 	2.2
scalar Network.dyn_peer[397] 	lookupStabilitySig:mean 	0.57431457440058
scalar Network.dyn_peer[397] 	lookupHopsSig:mean 	21.333333333333
scalar Network.dyn_peer[398] 	lookupTimeSig:mean 	1.5666666666667
scalar Network.dyn_peer[398] 	lookupStabilitySig:mean 	0.26997243364652
scalar Network.dyn_peer[398] 	lookupHopsSig:mean 	15
scalar Network.dyn_peer[399] 	lookupTimeSig:mean 	1.025
scalar Network.dyn_peer[399] 	lookupStabilitySig:mean 	0.91571049776394
scalar Network.dyn_peer[399] 	lookupHopsSig:mean 	9.375
scalar Network.dyn_peer[400] 	lookupTimeSig:mean 	2.9333333333333
scalar Network.dyn_peer[400] 	lookupStabilitySig:mean 	0.88278762002786
scalar Network.dyn_peer[400] 	lookupHopsSig:mean 	28.666666666667
scalar Network.dyn_peer[401] 	lookupTimeSig:mean 	0.9
scalar Network.dyn_peer[401] 	lookupStabilitySig:mean 	0.53273809452852
scalar Network.dyn_peer[401] 	lookupHopsSig:mean 	8.3333333333333
scalar Network.dyn_peer[402] 	lookupTimeSig:mean 	0.525
scalar Network.dyn_peer[402] 	lookupStabilitySig:mean 	0.43676470220089
scalar Network.dyn_peer[402] 	lookupHopsSig:mean 	4.5
scalar Network.dyn_peer[403] 	lookupTimeSig:mean 	1.0555555555556
scalar Network.dyn_peer[403] 	lookupStabilitySig:mean 	0.76432968883051
scalar Network.dyn_peer[403] 	lookupHopsSig:mean 	9.6666666666667
scalar Network.dyn_peer[404] 	lookupTimeSig:mean 	2.6333333333333
scalar Network.dyn_peer[404] 	lookupStabilitySig:mean 	0.58681764702002
scalar Network.dyn_peer[404] 	lookupHopsSig:mean 	25.666666666667
scalar Network.dyn_peer[405] 	lookupTimeSig:mean 	1.25
scalar Network.dyn_peer[405] 	lookupStabilitySig:mean 	0.54319697152823
scalar Network.dyn_peer[405] 	lookupHopsSig:mean 	11.75
scalar Network.dyn_peer[406] 	lookupTimeSig:mean 	1.1333333333333
scalar Network.dyn_peer[406] 	lookupStabilitySig:mean 	0.70729975712796
scalar Network.dyn_peer[406] 	lookupHopsSig:mean 	10.5
scalar Network.dyn_peer[407] 	lookupTimeSig:mean 	1.2857142857143
scalar Network.dyn_peer[407] 	lookupStabilitySig:mean 	0.70816601041172
scalar Network.dyn_peer[407] 	lookupHopsSig:mean 	12
scalar Network.dyn_peer[408] 	lookupTimeSig:mean 	1.475
scalar Network.dyn_peer[408] 	lookupStabilitySig:mean 	0.60071168467402
scalar Network.dyn_peer[408] 	lookupHopsSig:mean 	14
scalar Network.dyn_peer[409] 	lookupTimeSig:mean 	2.5333333333333
scalar Network.dyn_peer[409] 	lookupStabilitySig:mean 	0.86203458035986
scalar Network.dyn_peer[409] 	lookupHopsSig:mean 	24.666666666667
scalar Network.dyn_peer[410] 	lookupTimeSig:mean 	1.0727272727273
scalar Network.dyn_peer[410] 	lookupStabilitySig:mean 	0.91573111596517
scalar Network.dyn_peer[410] 	lookupHopsSig:mean 	9.8181818181818
scalar Network.dyn_peer[411] 	lookupTimeSig:mean 	0.93333333333333
scalar Network.dyn_peer[411] 	lookupStabilitySig:mean 	0.20155400037766
scalar Network.dyn_peer[411] 	lookupHopsSig:mean 	8.6666666666667
scalar Network.dyn_peer[412] 	lookupTimeSig:mean 	1.8
scalar Network.dyn_peer[412] 	lookupStabilitySig:mean 	0.27272726595402
scalar Network.dyn_peer[412] 	lookupHopsSig:mean 	17.5
scalar Network.dyn_peer[413] 	lookupTimeSig:mean 	1.08
scalar Network.dyn_peer[413] 	lookupStabilitySig:mean 	0.91753984526731
scalar Network.dyn_peer[413] 	lookupHopsSig:mean 	9.9
scalar Network.dyn_peer[414] 	lookupTimeSig:mean 	1.2769230769231
scalar Network.dyn_peer[414] 	lookupStabilitySig:mean 	0.91526663948137
scalar Network.dyn_peer[414] 	lookupHopsSig:mean 	11.846153846154
scalar Network.dyn_peer[415] 	lookupTimeSig:mean 	0.775
scalar Network.dyn_peer[415] 	lookupStabilitySig:mean 	0.41219806205481
scalar Network.dyn_peer[415] 	lookupHopsSig:mean 	7
scalar Network.dyn_peer[416] 	lookupTimeSig:mean 	1.2866666666667
scalar Network.dyn_peer[416] 	lookupStabilitySig:mean 	0.87219027141109
scalar Network.dyn_peer[416] 	lookupHopsSig:mean 	11.933333333333
scalar Network.dyn_peer[417] 	lookupTimeSig:mean 	1.2470588235294
scalar Network.dyn_peer[417] 	lookupStabilitySig:mean 	0.91109126762432
scalar Network.dyn_peer[417] 	lookupHopsSig:mean 	11.529411764706
scalar Network.dyn_peer[418] 	lookupTimeSig:mean 	1.8
scalar Network.dyn_peer[418] 	lookupStabilitySig:mean 	0.4499153594176
scalar Network.dyn_peer[418] 	lookupHopsSig:mean 	17.333333333333
scalar Network.dyn_peer[419] 	lookupTimeSig:mean 	1.76
scalar Network.dyn_peer[419] 	lookupStabilitySig:mean 	0.74050885140896
scalar Network.dyn_peer[419] 	lookupHopsSig:mean 	16.8
scalar Network.dyn_peer[420] 	lookupTimeSig:mean 	2.525
scalar Network.dyn_peer[420] 	lookupStabilitySig:mean 	0.59751399978995
scalar Network.dyn_peer[420] 	lookupHopsSig:mean 	24.5
[...]
scalar Network.dyn_peer[883] 	lookupTimeSig:mean 	-nan
scalar Network.dyn_peer[883] 	lookupStabilitySig:mean 	-nan
scalar Network.dyn_peer[883] 	lookupHopsSig:mean 	-nan
scalar Network.dyn_peer[884] 	lookupTimeSig:mean 	-nan
scalar Network.dyn_peer[884] 	lookupStabilitySig:mean 	-nan
scalar Network.dyn_peer[884] 	lookupHopsSig:mean 	-nan
scalar Network.dyn_peer[885] 	lookupTimeSig:mean 	-nan
scalar Network.dyn_peer[885] 	lookupStabilitySig:mean 	-nan
scalar Network.dyn_peer[885] 	lookupHopsSig:mean 	-nan
scalar Network.dyn_peer[886] 	lookupTimeSig:mean 	-nan
scalar Network.dyn_peer[886] 	lookupStabilitySig:mean 	-nan
scalar Network.dyn_peer[886] 	lookupHopsSig:mean 	-nan
scalar Network.dyn_peer[887] 	lookupTimeSig:mean 	-nan
scalar Network.dyn_peer[887] 	lookupStabilitySig:mean 	-nan
scalar Network.dyn_peer[887] 	lookupHopsSig:mean 	-nan
scalar Network.dyn_peer[888] 	lookupTimeSig:mean 	-nan
scalar Network.dyn_peer[888] 	lookupStabilitySig:mean 	-nan
scalar Network.dyn_peer[888] 	lookupHopsSig:mean 	-nan
scalar Network.dyn_peer[889] 	lookupTimeSig:mean 	-nan
scalar Network.dyn_peer[889] 	lookupStabilitySig:mean 	-nan
scalar Network.dyn_peer[889] 	lookupHopsSig:mean 	-nan
scalar Network.dyn_peer[890] 	lookupTimeSig:mean 	-nan
scalar Network.dyn_peer[890] 	lookupStabilitySig:mean 	-nan
scalar Network.dyn_peer[890] 	lookupHopsSig:mean 	-nan
scalar Network.dyn_peer[891] 	lookupTimeSig:mean 	-nan
scalar Network.dyn_peer[891] 	lookupStabilitySig:mean 	-nan
scalar Network.dyn_peer[891] 	lookupHopsSig:mean 	-nan
scalar Network.dyn_peer[892] 	lookupTimeSig:mean 	-nan
scalar Network.dyn_peer[892] 	lookupStabilitySig:mean 	-nan
scalar Network.dyn_peer[892] 	lookupHopsSig:mean 	-nan
scalar Network.dyn_peer[893] 	lookupTimeSig:mean 	-nan
scalar Network.dyn_peer[893] 	lookupStabilitySig:mean 	-nan
scalar Network.dyn_peer[893] 	lookupHopsSig:mean 	-nan
scalar Network.dyn_peer[894] 	lookupTimeSig:mean 	-nan
scalar Network.dyn_peer[894] 	lookupStabilitySig:mean 	-nan
scalar Network.dyn_peer[894] 	lookupHopsSig:mean 	-nan
scalar Network.dyn_peer[895] 	lookupTimeSig:mean 	-nan
scalar Network.dyn_peer[895] 	lookupStabilitySig:mean 	-nan
scalar Network.dyn_peer[895] 	lookupHopsSig:mean 	-nan
scalar Network.dyn_peer[896] 	lookupTimeSig:mean 	-nan
scalar Network.dyn_peer[896] 	lookupStabilitySig:mean 	-nan
scalar Network.dyn_peer[896] 	lookupHopsSig:mean 	-nan
scalar Network.dyn_peer[897] 	lookupTimeSig:mean 	-nan
scalar Network.dyn_peer[897] 	lookupStabilitySig:mean 	-nan
scalar Network.dyn_peer[897] 	lookupHopsSig:mean 	-nan
scalar Network.dyn_peer[898] 	lookupTimeSig:mean 	-nan
scalar Network.dyn_peer[898] 	lookupStabilitySig:mean 	-nan
scalar Network.dyn_peer[898] 	lookupHopsSig:mean 	-nan
scalar Network.dyn_peer[899] 	lookupTimeSig:mean 	-nan
scalar Network.dyn_peer[899] 	lookupStabilitySig:mean 	-nan
scalar Network.dyn_peer[899] 	lookupHopsSig:mean 	-nan
scalar Network.dyn_peer[900] 	lookupTimeSig:mean 	-nan
scalar Network.dyn_peer[900] 	lookupStabilitySig:mean 	-nan
scalar Network.dyn_peer[900] 	lookupHopsSig:mean 	-nan
scalar Network.dyn_peer[901] 	lookupTimeSig:mean 	-nan
scalar Network.dyn_peer[901] 	lookupStabilitySig:mean 	-nan
scalar Network.dyn_peer[901] 	lookupHopsSig:mean 	-nan
scalar Network.dyn_peer[902] 	lookupTimeSig:mean 	-nan
scalar Network.dyn_peer[902] 	lookupStabilitySig:mean 	-nan
scalar Network.dyn_peer[902] 	lookupHopsSig:mean 	-nan
scalar Network.dyn_peer[903] 	lookupTimeSig:mean 	-nan
scalar Network.dyn_peer[903] 	lookupStabilitySig:mean 	-nan
scalar Network.dyn_peer[903] 	lookupHopsSig:mean 	-nan
scalar Network.dyn_peer[904] 	lookupTimeSig:mean 	-nan
scalar Network.dyn_peer[904] 	lookupStabilitySig:mean 	-nan
scalar Network.dyn_peer[904] 	lookupHopsSig:mean 	-nan
scalar Network.dyn_peer[905] 	lookupTimeSig:mean 	-nan
scalar Network.dyn_peer[905] 	lookupStabilitySig:mean 	-nan
scalar Network.dyn_peer[905] 	lookupHopsSig:mean 	-nan
scalar Network.dyn_peer[906] 	lookupTimeSig:mean 	-nan
scalar Network.dyn_peer[906] 	lookupStabilitySig:mean 	-nan
scalar Network.dyn_peer[906] 	lookupHopsSig:mean 	-nan
scalar Network.dyn_peer[907] 	lookupTimeSig:mean 	-nan
scalar Network.dyn_peer[907] 	lookupStabilitySig:mean 	-nan
scalar Network.dyn_peer[907] 	lookupHopsSig:mean 	-nan
scalar Network.dyn_peer[908] 	lookupTimeSig:mean 	-nan
scalar Network.dyn_peer[908] 	lookupStabilitySig:mean 	-nan
scalar Network.dyn_peer[908] 	lookupHopsSig:mean 	-nan
scalar Network.dyn_peer[909] 	lookupTimeSig:mean 	-nan
scalar Network.dyn_peer[909] 	lookupStabilitySig:mean 	-nan
scalar Network.dyn_peer[909] 	lookupHopsSig:mean 	-nan
scalar Network.dyn_peer[910] 	lookupTimeSig:mean 	-nan
scalar Network.dyn_peer[910] 	lookupStabilitySig:mean 	-nan
scalar Network.dyn_peer[910] 	lookupHopsSig:mean 	-nan
scalar Network.dyn_peer[911] 	lookupTimeSig:mean 	-nan
scalar Network.dyn_peer[911] 	lookupStabilitySig:mean 	-nan
scalar Network.dyn_peer[911] 	lookupHopsSig:mean 	-nan
scalar Network.dyn_peer[912] 	lookupTimeSig:mean 	-nan
scalar Network.dyn_peer[912] 	lookupStabilitySig:mean 	-nan
scalar Network.dyn_peer[912] 	lookupHopsSig:mean 	-nan
scalar Network.dyn_peer[913] 	lookupTimeSig:mean 	-nan
scalar Network.dyn_peer[913] 	lookupStabilitySig:mean 	-nan
scalar Network.dyn_peer[913] 	lookupHopsSig:mean 	-nan
scalar Network.dyn_peer[914] 	lookupTimeSig:mean 	-nan
scalar Network.dyn_peer[914] 	lookupStabilitySig:mean 	-nan
scalar Network.dyn_peer[914] 	lookupHopsSig:mean 	-nan
scalar Network.dyn_peer[915] 	lookupTimeSig:mean 	-nan
scalar Network.dyn_peer[915] 	lookupStabilitySig:mean 	-nan
scalar Network.dyn_peer[915] 	lookupHopsSig:mean 	-nan
scalar Network.dyn_peer[916] 	lookupTimeSig:mean 	-nan
scalar Network.dyn_peer[916] 	lookupStabilitySig:mean 	-nan
scalar Network.dyn_peer[916] 	lookupHopsSig:mean 	-nan
scalar Network.dyn_peer[917] 	lookupTimeSig:mean 	-nan
scalar Network.dyn_peer[917] 	lookupStabilitySig:mean 	-nan
scalar Network.dyn_peer[917] 	lookupHopsSig:mean 	-nan
scalar Network.dyn_peer[918] 	lookupTimeSig:mean 	-nan
scalar Network.dyn_peer[918] 	lookupStabilitySig:mean 	-nan
scalar Network.dyn_peer[918] 	lookupHopsSig:mean 	-nan
scalar Network.dyn_peer[919] 	lookupTimeSig:mean 	-nan
scalar Network.dyn_peer[919] 	lookupStabilitySig:mean 	-nan
scalar Network.dyn_peer[919] 	lookupHopsSig:mean 	-nan
scalar Network.dyn_peer[920] 	lookupTimeSig:mean 	-nan
scalar Network.dyn_peer[920] 	lookupStabilitySig:mean 	-nan
scalar Network.dyn_peer[920] 	lookupHopsSig:mean 	-nan
scalar Network.dyn_peer[921] 	lookupTimeSig:mean 	-nan
scalar Network.dyn_peer[921] 	lookupStabilitySig:mean 	-nan
scalar Network.dyn_peer[921] 	lookupHopsSig:mean 	-nan
scalar Network.dyn_peer[922] 	lookupTimeSig:mean 	-nan
scalar Network.dyn_peer[922] 	lookupStabilitySig:mean 	-nan
scalar Network.dyn_peer[922] 	lookupHopsSig:mean 	-nan
scalar Network.dyn_peer[923] 	lookupTimeSig:mean 	-nan
scalar Network.dyn_peer[923] 	lookupStabilitySig:mean 	-nan
scalar Network.dyn_peer[923] 	lookupHopsSig:mean 	-nan
scalar Network.dyn_peer[924] 	lookupTimeSig:mean 	-nan
scalar Network.dyn_peer[924] 	lookupStabilitySig:mean 	-nan
scalar Network.dyn_peer[924] 	lookupHopsSig:mean 	-nan
scalar Network.dyn_peer[925] 	lookupTimeSig:mean 	-nan
scalar Network.dyn_peer[925] 	lookupStabilitySig:mean 	-nan
scalar Network.dyn_peer[925] 	lookupHopsSig:mean 	-nan
scalar Network.dyn_peer[926] 	lookupTimeSig:mean 	-nan
scalar Network.dyn_peer[926] 	lookupStabilitySig:mean 	-nan
scalar Network.dyn_peer[926] 	lookupHopsSig:mean 	-nan
scalar Network.dyn_peer[927] 	lookupTimeSig:mean 	-nan
scalar Network.dyn_peer[927] 	lookupStabilitySig:mean 	-nan
scalar Network.dyn_peer[927] 	lookupHopsSig:mean 	-nan
scalar Network.dyn_peer[928] 	lookupTimeSig:mean 	-nan
scalar Network.dyn_peer[928] 	lookupStabilitySig:mean 	-nan
scalar Network.dyn_peer[928] 	lookupHopsSig:mean 	-nan
scalar Network.dyn_peer[929] 	lookupTimeSig:mean 	-nan
scalar Network.dyn_peer[929] 	lookupStabilitySig:mean 	-nan
scalar Network.dyn_peer[929] 	lookupHopsSig:mean 	-nan
scalar Network.dyn_peer[930] 	lookupTimeSig:mean 	-nan
scalar Network.dyn_peer[930] 	lookupStabilitySig:mean 	-nan
scalar Network.dyn_peer[930] 	lookupHopsSig:mean 	-nan
scalar Network.dyn_peer[931] 	lookupTimeSig:mean 	-nan
scalar Network.dyn_peer[931] 	lookupStabilitySig:mean 	-nan
scalar Network.dyn_peer[931] 	lookupHopsSig:mean 	-nan
scalar Network.dyn_peer[932] 	lookupTimeSig:mean 	-nan
scalar Network.dyn_peer[932] 	lookupStabilitySig:mean 	-nan
scalar Network.dyn_peer[932] 	lookupHopsSig:mean 	-nan
scalar Network.dyn_peer[933] 	lookupTimeSig:mean 	-nan
scalar Network.dyn_peer[933] 	lookupStabilitySig:mean 	-nan
scalar Network.dyn_peer[933] 	lookupHopsSig:mean 	-nan
scalar Network.dyn_peer[934] 	lookupTimeSig:mean 	-nan
scalar Network.dyn_peer[934] 	lookupStabilitySig:mean 	-nan
scalar Network.dyn_peer[934] 	lookupHopsSig:mean 	-nan
scalar Network.dyn_peer[935] 	lookupTimeSig:mean 	-nan
scalar Network.dyn_peer[935] 	lookupStabilitySig:mean 	-nan
scalar Network.dyn_peer[935] 	lookupHopsSig:mean 	-nan
scalar Network.dyn_peer[936] 	lookupTimeSig:mean 	-nan
scalar Network.dyn_peer[936] 	lookupStabilitySig:mean 	-nan
scalar Network.dyn_peer[936] 	lookupHopsSig:mean 	-nan
scalar Network.dyn_peer[937] 	lookupTimeSig:mean 	-nan
scalar Network.dyn_peer[937] 	lookupStabilitySig:mean 	-nan
scalar Network.dyn_peer[937] 	lookupHopsSig:mean 	-nan
scalar Network.dyn_peer[938] 	lookupTimeSig:mean 	-nan
scalar Network.dyn_peer[938] 	lookupStabilitySig:mean 	-nan
scalar Network.dyn_peer[938] 	lookupHopsSig:mean 	-nan
scalar Network.dyn_peer[939] 	lookupTimeSig:mean 	-nan
scalar Network.dyn_peer[939] 	lookupStabilitySig:mean 	-nan
scalar Network.dyn_peer[939] 	lookupHopsSig:mean 	-nan
scalar Network.dyn_peer[940] 	lookupTimeSig:mean 	-nan
scalar Network.dyn_peer[940] 	lookupStabilitySig:mean 	-nan
scalar Network.dyn_peer[940] 	lookupHopsSig:mean 	-nan
scalar Network.dyn_peer[941] 	lookupTimeSig:mean 	-nan
scalar Network.dyn_peer[941] 	lookupStabilitySig:mean 	-nan
scalar Network.dyn_peer[941] 	lookupHopsSig:mean 	-nan
scalar Network.dyn_peer[942] 	lookupTimeSig:mean 	-nan
scalar Network.dyn_peer[942] 	lookupStabilitySig:mean 	-nan
scalar Network.dyn_peer[942] 	lookupHopsSig:mean 	-nan
scalar Network.dyn_peer[943] 	lookupTimeSig:mean 	-nan
scalar Network.dyn_peer[943] 	lookupStabilitySig:mean 	-nan
scalar Network.dyn_peer[943] 	lookupHopsSig:mean 	-nan
scalar Network.dyn_peer[944] 	lookupTimeSig:mean 	-nan
scalar Network.dyn_peer[944] 	lookupStabilitySig:mean 	-nan
scalar Network.dyn_peer[944] 	lookupHopsSig:mean 	-nan
scalar Network.dyn_peer[945] 	lookupTimeSig:mean 	-nan
scalar Network.dyn_peer[945] 	lookupStabilitySig:mean 	-nan
scalar Network.dyn_peer[945] 	lookupHopsSig:mean 	-nan
scalar Network.dyn_peer[946] 	lookupTimeSig:mean 	-nan
scalar Network.dyn_peer[946] 	lookupStabilitySig:mean 	-nan
scalar Network.dyn_peer[946] 	lookupHopsSig:mean 	-nan
scalar Network.dyn_peer[947] 	lookupTimeSig:mean 	-nan
scalar Network.dyn_peer[947] 	lookupStabilitySig:mean 	-nan
scalar Network.dyn_peer[947] 	lookupHopsSig:mean 	-nan
scalar Network.dyn_peer[948] 	lookupTimeSig:mean 	-nan
scalar Network.dyn_peer[948] 	lookupStabilitySig:mean 	-nan
scalar Network.dyn_peer[948] 	lookupHopsSig:mean 	-nan
scalar Network.dyn_peer[949] 	lookupTimeSig:mean 	-nan
scalar Network.dyn_peer[949] 	lookupStabilitySig:mean 	-nan
scalar Network.dyn_peer[949] 	lookupHopsSig:mean 	-nan
scalar Network.dyn_peer[950] 	lookupTimeSig:mean 	-nan
scalar Network.dyn_peer[950] 	lookupStabilitySig:mean 	-nan
scalar Network.dyn_peer[950] 	lookupHopsSig:mean 	-nan
scalar Network.dyn_peer[951] 	lookupTimeSig:mean 	-nan
scalar Network.dyn_peer[951] 	lookupStabilitySig:mean 	-nan
scalar Network.dyn_peer[951] 	lookupHopsSig:mean 	-nan
scalar Network.dyn_peer[952] 	lookupTimeSig:mean 	-nan
scalar Network.dyn_peer[952] 	lookupStabilitySig:mean 	-nan
scalar Network.dyn_peer[952] 	lookupHopsSig:mean 	-nan
scalar Network.dyn_peer[953] 	lookupTimeSig:mean 	-nan
scalar Network.dyn_peer[953] 	lookupStabilitySig:mean 	-nan
scalar Network.dyn_peer[953] 	lookupHopsSig:mean 	-nan
scalar Network.dyn_peer[954] 	lookupTimeSig:mean 	-nan
scalar Network.dyn_peer[954] 	lookupStabilitySig:mean 	-nan
scalar Network.dyn_peer[954] 	lookupHopsSig:mean 	-nan
scalar Network.dyn_peer[955] 	lookupTimeSig:mean 	-nan
scalar Network.dyn_peer[955] 	lookupStabilitySig:mean 	-nan
scalar Network.dyn_peer[955] 	lookupHopsSig:mean 	-nan
scalar Network.dyn_peer[956] 	lookupTimeSig:mean 	-nan
scalar Network.dyn_peer[956] 	lookupStabilitySig:mean 	-nan
scalar Network.dyn_peer[956] 	lookupHopsSig:mean 	-nan
scalar Network.dyn_peer[957] 	lookupTimeSig:mean 	-nan
scalar Network.dyn_peer[957] 	lookupStabilitySig:mean 	-nan
scalar Network.dyn_peer[957] 	lookupHopsSig:mean 	-nan
scalar Network.dyn_peer[958] 	lookupTimeSig:mean 	-nan
scalar Network.dyn_peer[958] 	lookupStabilitySig:mean 	-nan
scalar Network.dyn_peer[958] 	lookupHopsSig:mean 	-nan
scalar Network.dyn_peer[959] 	lookupTimeSig:mean 	-nan
scalar Network.dyn_peer[959] 	lookupStabilitySig:mean 	-nan
scalar Network.dyn_peer[959] 	lookupHopsSig:mean 	-nan
scalar Network.dyn_peer[960] 	lookupTimeSig:mean 	-nan
scalar Network.dyn_peer[960] 	lookupStabilitySig:mean 	-nan
scalar Network.dyn_peer[960] 	lookupHopsSig:mean 	-nan
scalar Network.dyn_peer[961] 	lookupTimeSig:mean 	-nan
scalar Network.dyn_peer[961] 	lookupStabilitySig:mean 	-nan
scalar Network.dyn_peer[961] 	lookupHopsSig:mean 	-nan
scalar Network.dyn_peer[962] 	lookupTimeSig:mean 	-nan
scalar Network.dyn_peer[962] 	lookupStabilitySig:mean 	-nan
scalar Network.dyn_peer[962] 	lookupHopsSig:mean 	-nan
scalar Network.dyn_peer[963] 	lookupTimeSig:mean 	-nan
scalar Network.dyn_peer[963] 	lookupStabilitySig:mean 	-nan
scalar Network.dyn_peer[963] 	lookupHopsSig:mean 	-nan
scalar Network.dyn_peer[964] 	lookupTimeSig:mean 	-nan
scalar Network.dyn_peer[964] 	lookupStabilitySig:mean 	-nan
scalar Network.dyn_peer[964] 	lookupHopsSig:mean 	-nan
scalar Network.dyn_peer[965] 	lookupTimeSig:mean 	-nan
scalar Network.dyn_peer[965] 	lookupStabilitySig:mean 	-nan
scalar Network.dyn_peer[965] 	lookupHopsSig:mean 	-nan
scalar Network.dyn_peer[966] 	lookupTimeSig:mean 	-nan
scalar Network.dyn_peer[966] 	lookupStabilitySig:mean 	-nan
scalar Network.dyn_peer[966] 	lookupHopsSig:mean 	-nan
scalar Network.dyn_peer[967] 	lookupTimeSig:mean 	-nan
scalar Network.dyn_peer[967] 	lookupStabilitySig:mean 	-nan
scalar Network.dyn_peer[967] 	lookupHopsSig:mean 	-nan
scalar Network.dyn_peer[968] 	lookupTimeSig:mean 	-nan
scalar Network.dyn_peer[968] 	lookupStabilitySig:mean 	-nan
scalar Network.dyn_peer[968] 	lookupHopsSig:mean 	-nan
scalar Network.dyn_peer[969] 	lookupTimeSig:mean 	-nan
scalar Network.dyn_peer[969] 	lookupStabilitySig:mean 	-nan
scalar Network.dyn_peer[969] 	lookupHopsSig:mean 	-nan
scalar Network.dyn_peer[970] 	lookupTimeSig:mean 	-nan
scalar Network.dyn_peer[970] 	lookupStabilitySig:mean 	-nan
scalar Network.dyn_peer[970] 	lookupHopsSig:mean 	-nan
scalar Network.dyn_peer[971] 	lookupTimeSig:mean 	-nan
scalar Network.dyn_peer[971] 	lookupStabilitySig:mean 	-nan
scalar Network.dyn_peer[971] 	lookupHopsSig:mean 	-nan
scalar Network.dyn_peer[972] 	lookupTimeSig:mean 	-nan
scalar Network.dyn_peer[972] 	lookupStabilitySig:mean 	-nan
scalar Network.dyn_peer[972] 	lookupHopsSig:mean 	-nan
scalar Network.dyn_peer[973] 	lookupTimeSig:mean 	-nan
scalar Network.dyn_peer[973] 	lookupStabilitySig:mean 	-nan
scalar Network.dyn_peer[973] 	lookupHopsSig:mean 	-nan
scalar Network.dyn_peer[974] 	lookupTimeSig:mean 	-nan
scalar Network.dyn_peer[974] 	lookupStabilitySig:mean 	-nan
scalar Network.dyn_peer[974] 	lookupHopsSig:mean 	-nan
scalar Network.dyn_peer[975] 	lookupTimeSig:mean 	-nan
scalar Network.dyn_peer[975] 	lookupStabilitySig:mean 	-nan
scalar Network.dyn_peer[975] 	lookupHopsSig:mean 	-nan
scalar Network.dyn_peer[976] 	lookupTimeSig:mean 	-nan
scalar Network.dyn_peer[976] 	lookupStabilitySig:mean 	-nan
scalar Network.dyn_peer[976] 	lookupHopsSig:mean 	-nan
scalar Network.dyn_peer[977] 	lookupTimeSig:mean 	-nan
scalar Network.dyn_peer[977] 	lookupStabilitySig:mean 	-nan
scalar Network.dyn_peer[977] 	lookupHopsSig:mean 	-nan
scalar Network.dyn_peer[978] 	lookupTimeSig:mean 	-nan
scalar Network.dyn_peer[978] 	lookupStabilitySig:mean 	-nan
scalar Network.dyn_peer[978] 	lookupHopsSig:mean 	-nan
scalar Network.dyn_peer[979] 	lookupTimeSig:mean 	-nan
scalar Network.dyn_peer[979] 	lookupStabilitySig:mean 	-nan
scalar Network.dyn_peer[979] 	lookupHopsSig:mean 	-nan
scalar Network.dyn_peer[980] 	lookupTimeSig:mean 	-nan
scalar Network.dyn_peer[980] 	lookupStabilitySig:mean 	-nan
scalar Network.dyn_peer[980] 	lookupHopsSig:mean 	-nan
scalar Network.dyn_peer[981] 	lookupTimeSig:mean 	-nan
scalar Network.dyn_peer[981] 	lookupStabilitySig:mean 	-nan
scalar Network.dyn_peer[981] 	lookupHopsSig:mean 	-nan
scalar Network.dyn_peer[982] 	lookupTimeSig:mean 	-nan
scalar Network.dyn_peer[982] 	lookupStabilitySig:mean 	-nan
scalar Network.dyn_peer[982] 	lookupHopsSig:mean 	-nan
scalar Network.dyn_peer[983] 	lookupTimeSig:mean 	-nan
scalar Network.dyn_peer[983] 	lookupStabilitySig:mean 	-nan
scalar Network.dyn_peer[983] 	lookupHopsSig:mean 	-nan
scalar Network.dyn_peer[984] 	lookupTimeSig:mean 	-nan
scalar Network.dyn_peer[984] 	lookupStabilitySig:mean 	-nan
scalar Network.dyn_peer[984] 	lookupHopsSig:mean 	-nan
scalar Network.dyn_peer[985] 	lookupTimeSig:mean 	-nan
scalar Network.dyn_peer[985] 	lookupStabilitySig:mean 	-nan
scalar Network.dyn_peer[985] 	lookupHopsSig:mean 	-nan
scalar Network.dyn_peer[986] 	lookupTimeSig:mean 	-nan
scalar Network.dyn_peer[986] 	lookupStabilitySig:mean 	-nan
scalar Network.dyn_peer[986] 	lookupHopsSig:mean 	-nan
scalar Network.dyn_peer[987] 	lookupTimeSig:mean 	-nan
scalar Network.dyn_peer[987] 	lookupStabilitySig:mean 	-nan
scalar Network.dyn_peer[987] 	lookupHopsSig:mean 	-nan
scalar Network.dyn_peer[988] 	lookupTimeSig:mean 	-nan
scalar Network.dyn_peer[988] 	lookupStabilitySig:mean 	-nan
scalar Network.dyn_peer[988] 	lookupHopsSig:mean 	-nan
scalar Network.dyn_peer[989] 	lookupTimeSig:mean 	-nan
scalar Network.dyn_peer[989] 	lookupStabilitySig:mean 	-nan
scalar Network.dyn_peer[989] 	lookupHopsSig:mean 	-nan
scalar Network.dyn_peer[990] 	lookupTimeSig:mean 	-nan
scalar Network.dyn_peer[990] 	lookupStabilitySig:mean 	-nan
scalar Network.dyn_peer[990] 	lookupHopsSig:mean 	-nan
scalar Network.dyn_peer[991] 	lookupTimeSig:mean 	-nan
scalar Network.dyn_peer[991] 	lookupStabilitySig:mean 	-nan
scalar Network.dyn_peer[991] 	lookupHopsSig:mean 	-nan
scalar Network.dyn_peer[992] 	lookupTimeSig:mean 	-nan
scalar Network.dyn_peer[992] 	lookupStabilitySig:mean 	-nan
scalar Network.dyn_peer[992] 	lookupHopsSig:mean 	-nan
scalar Network.dyn_peer[993] 	lookupTimeSig:mean 	-nan
scalar Network.dyn_peer[993] 	lookupStabilitySig:mean 	-nan
scalar Network.dyn_peer[993] 	lookupHopsSig:mean 	-nan
scalar Network.dyn_peer[994] 	lookupTimeSig:mean 	-nan
scalar Network.dyn_peer[994] 	lookupStabilitySig:mean 	-nan
scalar Network.dyn_peer[994] 	lookupHopsSig:mean 	-nan
scalar Network.dyn_peer[995] 	lookupTimeSig:mean 	-nan
scalar Network.dyn_peer[995] 	lookupStabilitySig:mean 	-nan
scalar Network.dyn_peer[995] 	lookupHopsSig:mean 	-nan
scalar Network.dyn_peer[996] 	lookupTimeSig:mean 	-nan
scalar Network.dyn_peer[996] 	lookupStabilitySig:mean 	-nan
scalar Network.dyn_peer[996] 	lookupHopsSig:mean 	-nan
scalar Network.dyn_peer[997] 	lookupTimeSig:mean 	-nan
scalar Network.dyn_peer[997] 	lookupStabilitySig:mean 	-nan
scalar Network.dyn_peer[997] 	lookupHopsSig:mean 	-nan
scalar Network.dyn_peer[998] 	lookupTimeSig:mean 	-nan
scalar Network.dyn_peer[998] 	lookupStabilitySig:mean 	-nan
scalar Network.dyn_peer[998] 	lookupHopsSig:mean 	-nan
scalar Network.dyn_peer[999] 	lookupTimeSig:mean 	-nan
scalar Network.dyn_peer[999] 	lookupStabilitySig:mean 	-nan
scalar Network.dyn_peer[999] 	lookupHopsSig:mean 	-nan
scalar Network.churner 	inGoingSizeSig:mean 	249.00199600798
