version 2
run Stability2-329-20130526-00:55:45-26640
attr configname Stability2
attr datetime 20130526-00:55:45
attr experiment Stability2
attr inifile omnetpp.ini
attr iterationvars $0=1000
attr iterationvars2 "$0=1000, $repetition=29"
attr measurement $0=1000
attr network Network
attr processid 26640
attr repetition 29
attr replication #29
attr resultdir results
attr runnumber 329
attr seedset 329

scalar Network.dyn_peer[0] 	lookupTimeSig:mean 	2.58
scalar Network.dyn_peer[0] 	lookupStabilitySig:mean 	0.64427361525595
scalar Network.dyn_peer[0] 	lookupHopsSig:mean 	25
scalar Network.dyn_peer[1] 	lookupTimeSig:mean 	1.2777777777778
scalar Network.dyn_peer[1] 	lookupStabilitySig:mean 	0.69586454952757
scalar Network.dyn_peer[1] 	lookupHopsSig:mean 	11.888888888889
scalar Network.dyn_peer[2] 	lookupTimeSig:mean 	1.0333333333333
scalar Network.dyn_peer[2] 	lookupStabilitySig:mean 	0.3676281919082
scalar Network.dyn_peer[2] 	lookupHopsSig:mean 	9.6666666666667
scalar Network.dyn_peer[3] 	lookupTimeSig:mean 	2.3
scalar Network.dyn_peer[3] 	lookupStabilitySig:mean 	0.50926784674327
scalar Network.dyn_peer[3] 	lookupHopsSig:mean 	22.333333333333
scalar Network.dyn_peer[4] 	lookupTimeSig:mean 	1.7333333333333
scalar Network.dyn_peer[4] 	lookupStabilitySig:mean 	0.54405163228512
scalar Network.dyn_peer[4] 	lookupHopsSig:mean 	16.666666666667
scalar Network.dyn_peer[5] 	lookupTimeSig:mean 	3.1
scalar Network.dyn_peer[5] 	lookupStabilitySig:mean 	0.88115912675858
scalar Network.dyn_peer[5] 	lookupHopsSig:mean 	30.2
scalar Network.dyn_peer[6] 	lookupTimeSig:mean 	1.325
scalar Network.dyn_peer[6] 	lookupStabilitySig:mean 	0.41089714597911
scalar Network.dyn_peer[6] 	lookupHopsSig:mean 	12.5
scalar Network.dyn_peer[7] 	lookupTimeSig:mean 	1.8
scalar Network.dyn_peer[7] 	lookupStabilitySig:mean 	0.45350782200694
scalar Network.dyn_peer[7] 	lookupHopsSig:mean 	17.25
scalar Network.dyn_peer[8] 	lookupTimeSig:mean 	2.28
scalar Network.dyn_peer[8] 	lookupStabilitySig:mean 	0.5675875261426
scalar Network.dyn_peer[8] 	lookupHopsSig:mean 	22
scalar Network.dyn_peer[9] 	lookupTimeSig:mean 	1.9166666666667
scalar Network.dyn_peer[9] 	lookupStabilitySig:mean 	0.56559324078262
scalar Network.dyn_peer[9] 	lookupHopsSig:mean 	18.333333333333
scalar Network.dyn_peer[10] 	lookupTimeSig:mean 	3.35
scalar Network.dyn_peer[10] 	lookupStabilitySig:mean 	0.53421051800251
scalar Network.dyn_peer[10] 	lookupHopsSig:mean 	33
scalar Network.dyn_peer[11] 	lookupTimeSig:mean 	2.9333333333333
scalar Network.dyn_peer[11] 	lookupStabilitySig:mean 	0.52015968163808
scalar Network.dyn_peer[11] 	lookupHopsSig:mean 	28.666666666667
scalar Network.dyn_peer[12] 	lookupTimeSig:mean 	1.8142857142857
scalar Network.dyn_peer[12] 	lookupStabilitySig:mean 	0.6449592278472
scalar Network.dyn_peer[12] 	lookupHopsSig:mean 	17.285714285714
scalar Network.dyn_peer[13] 	lookupTimeSig:mean 	1.7714285714286
scalar Network.dyn_peer[13] 	lookupStabilitySig:mean 	0.86070281506649
scalar Network.dyn_peer[13] 	lookupHopsSig:mean 	16.857142857143
scalar Network.dyn_peer[14] 	lookupTimeSig:mean 	2.4
scalar Network.dyn_peer[14] 	lookupStabilitySig:mean 	0.37210329373678
scalar Network.dyn_peer[14] 	lookupHopsSig:mean 	23.333333333333
scalar Network.dyn_peer[15] 	lookupTimeSig:mean 	1.125
scalar Network.dyn_peer[15] 	lookupStabilitySig:mean 	0.56031744368374
scalar Network.dyn_peer[15] 	lookupHopsSig:mean 	10.5
scalar Network.dyn_peer[16] 	lookupTimeSig:mean 	1.5
scalar Network.dyn_peer[16] 	lookupStabilitySig:mean 	0.51657467894256
scalar Network.dyn_peer[16] 	lookupHopsSig:mean 	14.25
scalar Network.dyn_peer[17] 	lookupTimeSig:mean 	1.66
scalar Network.dyn_peer[17] 	lookupStabilitySig:mean 	0.576004436519
scalar Network.dyn_peer[17] 	lookupHopsSig:mean 	15.8
scalar Network.dyn_peer[18] 	lookupTimeSig:mean 	1.4142857142857
scalar Network.dyn_peer[18] 	lookupStabilitySig:mean 	0.66091885045171
scalar Network.dyn_peer[18] 	lookupHopsSig:mean 	13.285714285714
scalar Network.dyn_peer[19] 	lookupTimeSig:mean 	1.5857142857143
scalar Network.dyn_peer[19] 	lookupStabilitySig:mean 	0.69453681686095
scalar Network.dyn_peer[19] 	lookupHopsSig:mean 	15
scalar Network.dyn_peer[20] 	lookupTimeSig:mean 	1.4666666666667
scalar Network.dyn_peer[20] 	lookupStabilitySig:mean 	0.57870722655207
scalar Network.dyn_peer[20] 	lookupHopsSig:mean 	13.833333333333
scalar Network.dyn_peer[21] 	lookupTimeSig:mean 	3
scalar Network.dyn_peer[21] 	lookupStabilitySig:mean 	0.37349070111911
scalar Network.dyn_peer[21] 	lookupHopsSig:mean 	29.333333333333
scalar Network.dyn_peer[22] 	lookupTimeSig:mean 	1.9857142857143
scalar Network.dyn_peer[22] 	lookupStabilitySig:mean 	0.69860781409911
scalar Network.dyn_peer[22] 	lookupHopsSig:mean 	19
scalar Network.dyn_peer[23] 	lookupTimeSig:mean 	1.1666666666667
scalar Network.dyn_peer[23] 	lookupStabilitySig:mean 	0.66295487061143
scalar Network.dyn_peer[23] 	lookupHopsSig:mean 	10.833333333333
scalar Network.dyn_peer[24] 	lookupTimeSig:mean 	4.55
scalar Network.dyn_peer[24] 	lookupStabilitySig:mean 	0.87323944270611
scalar Network.dyn_peer[24] 	lookupHopsSig:mean 	45
scalar Network.dyn_peer[25] 	lookupTimeSig:mean 	2.0333333333333
scalar Network.dyn_peer[25] 	lookupStabilitySig:mean 	0.48841355244319
scalar Network.dyn_peer[25] 	lookupHopsSig:mean 	19.666666666667
scalar Network.dyn_peer[26] 	lookupTimeSig:mean 	1.9333333333333
scalar Network.dyn_peer[26] 	lookupStabilitySig:mean 	0.34021263072888
scalar Network.dyn_peer[26] 	lookupHopsSig:mean 	18.666666666667
scalar Network.dyn_peer[27] 	lookupTimeSig:mean 	2
scalar Network.dyn_peer[27] 	lookupStabilitySig:mean 	0.41756945103407
scalar Network.dyn_peer[27] 	lookupHopsSig:mean 	19.25
scalar Network.dyn_peer[28] 	lookupTimeSig:mean 	2
scalar Network.dyn_peer[28] 	lookupStabilitySig:mean 	0.72931314146678
scalar Network.dyn_peer[28] 	lookupHopsSig:mean 	19.142857142857
scalar Network.dyn_peer[29] 	lookupTimeSig:mean 	1.4
scalar Network.dyn_peer[29] 	lookupStabilitySig:mean 	0.65204163491726
scalar Network.dyn_peer[29] 	lookupHopsSig:mean 	13.2
scalar Network.dyn_peer[30] 	lookupTimeSig:mean 	2.75
scalar Network.dyn_peer[30] 	lookupStabilitySig:mean 	0.46084109693766
scalar Network.dyn_peer[30] 	lookupHopsSig:mean 	26.75
scalar Network.dyn_peer[31] 	lookupTimeSig:mean 	2.75
scalar Network.dyn_peer[31] 	lookupStabilitySig:mean 	0.47918370179832
scalar Network.dyn_peer[31] 	lookupHopsSig:mean 	26.75
scalar Network.dyn_peer[32] 	lookupTimeSig:mean 	2.85
scalar Network.dyn_peer[32] 	lookupStabilitySig:mean 	0.79856115579605
scalar Network.dyn_peer[32] 	lookupHopsSig:mean 	28
scalar Network.dyn_peer[33] 	lookupTimeSig:mean 	2.2142857142857
scalar Network.dyn_peer[33] 	lookupStabilitySig:mean 	0.77603342144617
scalar Network.dyn_peer[33] 	lookupHopsSig:mean 	21.285714285714
scalar Network.dyn_peer[34] 	lookupTimeSig:mean 	1.775
scalar Network.dyn_peer[34] 	lookupStabilitySig:mean 	0.48660714551806
scalar Network.dyn_peer[34] 	lookupHopsSig:mean 	17
scalar Network.dyn_peer[35] 	lookupTimeSig:mean 	2.35
scalar Network.dyn_peer[35] 	lookupStabilitySig:mean 	0.63417173922062
scalar Network.dyn_peer[35] 	lookupHopsSig:mean 	22.75
scalar Network.dyn_peer[36] 	lookupTimeSig:mean 	1.1
scalar Network.dyn_peer[36] 	lookupStabilitySig:mean 	0.31428569927812
scalar Network.dyn_peer[36] 	lookupHopsSig:mean 	10.25
scalar Network.dyn_peer[37] 	lookupTimeSig:mean 	2.46
scalar Network.dyn_peer[37] 	lookupStabilitySig:mean 	0.84580804295838
scalar Network.dyn_peer[37] 	lookupHopsSig:mean 	23.8
scalar Network.dyn_peer[38] 	lookupTimeSig:mean 	1.2
scalar Network.dyn_peer[38] 	lookupStabilitySig:mean 	0.65751633048058
scalar Network.dyn_peer[38] 	lookupHopsSig:mean 	11.333333333333
scalar Network.dyn_peer[39] 	lookupTimeSig:mean 	1.98
scalar Network.dyn_peer[39] 	lookupStabilitySig:mean 	0.84942714422941
scalar Network.dyn_peer[39] 	lookupHopsSig:mean 	19
scalar Network.dyn_peer[40] 	lookupTimeSig:mean 	1.5727272727273
scalar Network.dyn_peer[40] 	lookupStabilitySig:mean 	0.79361607489938
scalar Network.dyn_peer[40] 	lookupHopsSig:mean 	14.818181818182
scalar Network.dyn_peer[41] 	lookupTimeSig:mean 	1.84
scalar Network.dyn_peer[41] 	lookupStabilitySig:mean 	0.54740412756801
scalar Network.dyn_peer[41] 	lookupHopsSig:mean 	17.6
scalar Network.dyn_peer[42] 	lookupTimeSig:mean 	2.8
scalar Network.dyn_peer[42] 	lookupStabilitySig:mean 	0.69699247926474
scalar Network.dyn_peer[42] 	lookupHopsSig:mean 	27.5
scalar Network.dyn_peer[43] 	lookupTimeSig:mean 	2.325
scalar Network.dyn_peer[43] 	lookupStabilitySig:mean 	0.85992400255054
scalar Network.dyn_peer[43] 	lookupHopsSig:mean 	22.5
scalar Network.dyn_peer[44] 	lookupTimeSig:mean 	1
scalar Network.dyn_peer[44] 	lookupStabilitySig:mean 	0.55530781149864
scalar Network.dyn_peer[44] 	lookupHopsSig:mean 	9.2
scalar Network.dyn_peer[45] 	lookupTimeSig:mean 	1.6833333333333
scalar Network.dyn_peer[45] 	lookupStabilitySig:mean 	0.60093546596666
scalar Network.dyn_peer[45] 	lookupHopsSig:mean 	16
scalar Network.dyn_peer[46] 	lookupTimeSig:mean 	1.3125
scalar Network.dyn_peer[46] 	lookupStabilitySig:mean 	0.7112641131389
scalar Network.dyn_peer[46] 	lookupHopsSig:mean 	12.25
scalar Network.dyn_peer[47] 	lookupTimeSig:mean 	3.6333333333333
scalar Network.dyn_peer[47] 	lookupStabilitySig:mean 	0.57534642145038
scalar Network.dyn_peer[47] 	lookupHopsSig:mean 	35.666666666667
scalar Network.dyn_peer[48] 	lookupTimeSig:mean 	2.4833333333333
scalar Network.dyn_peer[48] 	lookupStabilitySig:mean 	0.80157511029392
scalar Network.dyn_peer[48] 	lookupHopsSig:mean 	24
scalar Network.dyn_peer[49] 	lookupTimeSig:mean 	3.08
scalar Network.dyn_peer[49] 	lookupStabilitySig:mean 	0.54287067521363
scalar Network.dyn_peer[49] 	lookupHopsSig:mean 	30
scalar Network.dyn_peer[50] 	lookupTimeSig:mean 	2.6
scalar Network.dyn_peer[50] 	lookupStabilitySig:mean 	0.58251108601689
scalar Network.dyn_peer[50] 	lookupHopsSig:mean 	25.25
scalar Network.dyn_peer[51] 	lookupTimeSig:mean 	1.82
scalar Network.dyn_peer[51] 	lookupStabilitySig:mean 	0.6511866658926
scalar Network.dyn_peer[51] 	lookupHopsSig:mean 	17.4
scalar Network.dyn_peer[52] 	lookupTimeSig:mean 	1.725
scalar Network.dyn_peer[52] 	lookupStabilitySig:mean 	0.74511497840285
scalar Network.dyn_peer[52] 	lookupHopsSig:mean 	16.5
scalar Network.dyn_peer[53] 	lookupTimeSig:mean 	0.85
scalar Network.dyn_peer[53] 	lookupStabilitySig:mean 	0.33934107795358
scalar Network.dyn_peer[53] 	lookupHopsSig:mean 	7.75
scalar Network.dyn_peer[54] 	lookupTimeSig:mean 	2.24
scalar Network.dyn_peer[54] 	lookupStabilitySig:mean 	0.55960559844971
scalar Network.dyn_peer[54] 	lookupHopsSig:mean 	21.6
scalar Network.dyn_peer[55] 	lookupTimeSig:mean 	1.68
scalar Network.dyn_peer[55] 	lookupStabilitySig:mean 	0.5211544290185
scalar Network.dyn_peer[55] 	lookupHopsSig:mean 	16
scalar Network.dyn_peer[56] 	lookupTimeSig:mean 	1.6
scalar Network.dyn_peer[56] 	lookupStabilitySig:mean 	0.61422108406467
scalar Network.dyn_peer[56] 	lookupHopsSig:mean 	15.142857142857
scalar Network.dyn_peer[57] 	lookupTimeSig:mean 	1.6818181818182
scalar Network.dyn_peer[57] 	lookupStabilitySig:mean 	0.78007856214588
scalar Network.dyn_peer[57] 	lookupHopsSig:mean 	15.909090909091
scalar Network.dyn_peer[58] 	lookupTimeSig:mean 	1.9125
scalar Network.dyn_peer[58] 	lookupStabilitySig:mean 	0.84335242706584
scalar Network.dyn_peer[58] 	lookupHopsSig:mean 	18.25
scalar Network.dyn_peer[59] 	lookupTimeSig:mean 	2.04
scalar Network.dyn_peer[59] 	lookupStabilitySig:mean 	0.61934108436108
scalar Network.dyn_peer[59] 	lookupHopsSig:mean 	19.6
scalar Network.dyn_peer[60] 	lookupTimeSig:mean 	1.5
scalar Network.dyn_peer[60] 	lookupStabilitySig:mean 	0.71263525425456
scalar Network.dyn_peer[60] 	lookupHopsSig:mean 	14.125
scalar Network.dyn_peer[61] 	lookupTimeSig:mean 	0.8
scalar Network.dyn_peer[61] 	lookupStabilitySig:mean 	0.44219536483288
scalar Network.dyn_peer[61] 	lookupHopsSig:mean 	7.2
scalar Network.dyn_peer[62] 	lookupTimeSig:mean 	1.55
scalar Network.dyn_peer[62] 	lookupStabilitySig:mean 	0.5819699941203
scalar Network.dyn_peer[62] 	lookupHopsSig:mean 	14.666666666667
scalar Network.dyn_peer[63] 	lookupTimeSig:mean 	3.25
scalar Network.dyn_peer[63] 	lookupStabilitySig:mean 	0.18115940690041
scalar Network.dyn_peer[63] 	lookupHopsSig:mean 	32
scalar Network.dyn_peer[64] 	lookupTimeSig:mean 	2.86
scalar Network.dyn_peer[64] 	lookupStabilitySig:mean 	0.74260535165668
scalar Network.dyn_peer[64] 	lookupHopsSig:mean 	27.8
scalar Network.dyn_peer[65] 	lookupTimeSig:mean 	4.6
scalar Network.dyn_peer[65] 	lookupStabilitySig:mean 	0.6961437103649
scalar Network.dyn_peer[65] 	lookupHopsSig:mean 	45.333333333333
scalar Network.dyn_peer[66] 	lookupTimeSig:mean 	2.38
scalar Network.dyn_peer[66] 	lookupStabilitySig:mean 	0.75556610636413
scalar Network.dyn_peer[66] 	lookupHopsSig:mean 	23
scalar Network.dyn_peer[67] 	lookupTimeSig:mean 	4.6
scalar Network.dyn_peer[67] 	lookupStabilitySig:mean 	0.31352323293686
scalar Network.dyn_peer[67] 	lookupHopsSig:mean 	45.333333333333
scalar Network.dyn_peer[68] 	lookupTimeSig:mean 	1.7
scalar Network.dyn_peer[68] 	lookupStabilitySig:mean 	0.61247251592577
scalar Network.dyn_peer[68] 	lookupHopsSig:mean 	16.2
scalar Network.dyn_peer[69] 	lookupTimeSig:mean 	1.08
scalar Network.dyn_peer[69] 	lookupStabilitySig:mean 	0.50170634388924
scalar Network.dyn_peer[69] 	lookupHopsSig:mean 	10
scalar Network.dyn_peer[70] 	lookupTimeSig:mean 	3.1
scalar Network.dyn_peer[70] 	lookupStabilitySig:mean 	0.25962739686171
scalar Network.dyn_peer[70] 	lookupHopsSig:mean 	30.333333333333
scalar Network.dyn_peer[71] 	lookupTimeSig:mean 	2.1
scalar Network.dyn_peer[71] 	lookupStabilitySig:mean 	0.35737555970748
scalar Network.dyn_peer[71] 	lookupHopsSig:mean 	20.333333333333
scalar Network.dyn_peer[72] 	lookupTimeSig:mean 	2.5666666666667
scalar Network.dyn_peer[72] 	lookupStabilitySig:mean 	0.24840319156647
scalar Network.dyn_peer[72] 	lookupHopsSig:mean 	25
scalar Network.dyn_peer[73] 	lookupTimeSig:mean 	2.22
scalar Network.dyn_peer[73] 	lookupStabilitySig:mean 	0.58299589306116
scalar Network.dyn_peer[73] 	lookupHopsSig:mean 	21.4
scalar Network.dyn_peer[74] 	lookupTimeSig:mean 	2.0571428571429
scalar Network.dyn_peer[74] 	lookupStabilitySig:mean 	0.88981767118509
scalar Network.dyn_peer[74] 	lookupHopsSig:mean 	19.714285714286
scalar Network.dyn_peer[75] 	lookupTimeSig:mean 	0.74285714285714
scalar Network.dyn_peer[75] 	lookupStabilitySig:mean 	0.62634044247014
scalar Network.dyn_peer[75] 	lookupHopsSig:mean 	6.5714285714286
scalar Network.dyn_peer[76] 	lookupTimeSig:mean 	1.425
scalar Network.dyn_peer[76] 	lookupStabilitySig:mean 	0.62275262922049
scalar Network.dyn_peer[76] 	lookupHopsSig:mean 	13.5
scalar Network.dyn_peer[77] 	lookupTimeSig:mean 	2.2
scalar Network.dyn_peer[77] 	lookupStabilitySig:mean 	0.44670232137044
scalar Network.dyn_peer[77] 	lookupHopsSig:mean 	21.333333333333
scalar Network.dyn_peer[78] 	lookupTimeSig:mean 	0.85
scalar Network.dyn_peer[78] 	lookupStabilitySig:mean 	0.56622072681785
scalar Network.dyn_peer[78] 	lookupHopsSig:mean 	7.75
scalar Network.dyn_peer[79] 	lookupTimeSig:mean 	2.075
scalar Network.dyn_peer[79] 	lookupStabilitySig:mean 	0.74278603494167
scalar Network.dyn_peer[79] 	lookupHopsSig:mean 	20
scalar Network.dyn_peer[80] 	lookupTimeSig:mean 	1.6833333333333
scalar Network.dyn_peer[80] 	lookupStabilitySig:mean 	0.58844613097608
scalar Network.dyn_peer[80] 	lookupHopsSig:mean 	16
scalar Network.dyn_peer[81] 	lookupTimeSig:mean 	1.6571428571429
scalar Network.dyn_peer[81] 	lookupStabilitySig:mean 	0.77222795784473
scalar Network.dyn_peer[81] 	lookupHopsSig:mean 	15.714285714286
scalar Network.dyn_peer[82] 	lookupTimeSig:mean 	1.4714285714286
scalar Network.dyn_peer[82] 	lookupStabilitySig:mean 	0.59963502907859
scalar Network.dyn_peer[82] 	lookupHopsSig:mean 	13.857142857143
scalar Network.dyn_peer[83] 	lookupTimeSig:mean 	2.0333333333333
scalar Network.dyn_peer[83] 	lookupStabilitySig:mean 	0.69146267262598
scalar Network.dyn_peer[83] 	lookupHopsSig:mean 	19.5
scalar Network.dyn_peer[84] 	lookupTimeSig:mean 	1.4266666666667
scalar Network.dyn_peer[84] 	lookupStabilitySig:mean 	0.91926178469633
scalar Network.dyn_peer[84] 	lookupHopsSig:mean 	13.333333333333
scalar Network.dyn_peer[85] 	lookupTimeSig:mean 	1.96
scalar Network.dyn_peer[85] 	lookupStabilitySig:mean 	0.58555260896683
scalar Network.dyn_peer[85] 	lookupHopsSig:mean 	18.8
scalar Network.dyn_peer[86] 	lookupTimeSig:mean 	1.7666666666667
scalar Network.dyn_peer[86] 	lookupStabilitySig:mean 	0.75299818181278
scalar Network.dyn_peer[86] 	lookupHopsSig:mean 	16.833333333333
scalar Network.dyn_peer[87] 	lookupTimeSig:mean 	1.5166666666667
scalar Network.dyn_peer[87] 	lookupStabilitySig:mean 	0.54675875169535
scalar Network.dyn_peer[87] 	lookupHopsSig:mean 	14.333333333333
scalar Network.dyn_peer[88] 	lookupTimeSig:mean 	2.0333333333333
scalar Network.dyn_peer[88] 	lookupStabilitySig:mean 	0.7846945559399
scalar Network.dyn_peer[88] 	lookupHopsSig:mean 	19.444444444444
scalar Network.dyn_peer[89] 	lookupTimeSig:mean 	1.4857142857143
scalar Network.dyn_peer[89] 	lookupStabilitySig:mean 	0.74716778259192
scalar Network.dyn_peer[89] 	lookupHopsSig:mean 	14
scalar Network.dyn_peer[90] 	lookupTimeSig:mean 	1.96
scalar Network.dyn_peer[90] 	lookupStabilitySig:mean 	0.69092262983322
scalar Network.dyn_peer[90] 	lookupHopsSig:mean 	18.8
scalar Network.dyn_peer[91] 	lookupTimeSig:mean 	2.3
scalar Network.dyn_peer[91] 	lookupStabilitySig:mean 	0.38733029117187
scalar Network.dyn_peer[91] 	lookupHopsSig:mean 	22.333333333333
scalar Network.dyn_peer[92] 	lookupTimeSig:mean 	1.4166666666667
scalar Network.dyn_peer[92] 	lookupStabilitySig:mean 	0.7276976533855
scalar Network.dyn_peer[92] 	lookupHopsSig:mean 	13.333333333333
scalar Network.dyn_peer[93] 	lookupTimeSig:mean 	1.2166666666667
scalar Network.dyn_peer[93] 	lookupStabilitySig:mean 	0.56663319468498
scalar Network.dyn_peer[93] 	lookupHopsSig:mean 	11.333333333333
scalar Network.dyn_peer[94] 	lookupTimeSig:mean 	2.5166666666667
scalar Network.dyn_peer[94] 	lookupStabilitySig:mean 	0.75821746746078
scalar Network.dyn_peer[94] 	lookupHopsSig:mean 	24.333333333333
scalar Network.dyn_peer[95] 	lookupTimeSig:mean 	1.7888888888889
scalar Network.dyn_peer[95] 	lookupStabilitySig:mean 	0.90166165788348
scalar Network.dyn_peer[95] 	lookupHopsSig:mean 	17
scalar Network.dyn_peer[96] 	lookupTimeSig:mean 	1.3333333333333
scalar Network.dyn_peer[96] 	lookupStabilitySig:mean 	0.24144898851713
scalar Network.dyn_peer[96] 	lookupHopsSig:mean 	12.666666666667
scalar Network.dyn_peer[97] 	lookupTimeSig:mean 	0.85
scalar Network.dyn_peer[97] 	lookupStabilitySig:mean 	0.50905797258019
scalar Network.dyn_peer[97] 	lookupHopsSig:mean 	7.75
scalar Network.dyn_peer[98] 	lookupTimeSig:mean 	2.4428571428571
scalar Network.dyn_peer[98] 	lookupStabilitySig:mean 	0.71782392955252
scalar Network.dyn_peer[98] 	lookupHopsSig:mean 	23.571428571429
scalar Network.dyn_peer[99] 	lookupTimeSig:mean 	2.52
scalar Network.dyn_peer[99] 	lookupStabilitySig:mean 	0.61677389740944
scalar Network.dyn_peer[99] 	lookupHopsSig:mean 	24.4
scalar Network.dyn_peer[100] 	lookupTimeSig:mean 	2.84
scalar Network.dyn_peer[100] 	lookupStabilitySig:mean 	0.88568380437791
scalar Network.dyn_peer[100] 	lookupHopsSig:mean 	27.6
scalar Network.dyn_peer[101] 	lookupTimeSig:mean 	1.7166666666667
scalar Network.dyn_peer[101] 	lookupStabilitySig:mean 	0.92396548204124
scalar Network.dyn_peer[101] 	lookupHopsSig:mean 	16.25
scalar Network.dyn_peer[102] 	lookupTimeSig:mean 	2.5
scalar Network.dyn_peer[102] 	lookupStabilitySig:mean 	0.76705584581941
scalar Network.dyn_peer[102] 	lookupHopsSig:mean 	24.25
scalar Network.dyn_peer[103] 	lookupTimeSig:mean 	3.8333333333333
scalar Network.dyn_peer[103] 	lookupStabilitySig:mean 	0.56665093948444
scalar Network.dyn_peer[103] 	lookupHopsSig:mean 	37.666666666667
scalar Network.dyn_peer[104] 	lookupTimeSig:mean 	1.0625
scalar Network.dyn_peer[104] 	lookupStabilitySig:mean 	0.69712283124682
scalar Network.dyn_peer[104] 	lookupHopsSig:mean 	9.75
scalar Network.dyn_peer[105] 	lookupTimeSig:mean 	2
scalar Network.dyn_peer[105] 	lookupStabilitySig:mean 	0.55481433216482
scalar Network.dyn_peer[105] 	lookupHopsSig:mean 	19.25
scalar Network.dyn_peer[106] 	lookupTimeSig:mean 	2.2
scalar Network.dyn_peer[106] 	lookupStabilitySig:mean 	0.45406482865413
scalar Network.dyn_peer[106] 	lookupHopsSig:mean 	21.333333333333
scalar Network.dyn_peer[107] 	lookupTimeSig:mean 	2.8166666666667
scalar Network.dyn_peer[107] 	lookupStabilitySig:mean 	0.81593561141441
scalar Network.dyn_peer[107] 	lookupHopsSig:mean 	27.333333333333
scalar Network.dyn_peer[108] 	lookupTimeSig:mean 	2.75
scalar Network.dyn_peer[108] 	lookupStabilitySig:mean 	0.46939979866147
scalar Network.dyn_peer[108] 	lookupHopsSig:mean 	26.75
scalar Network.dyn_peer[109] 	lookupTimeSig:mean 	1.4625
scalar Network.dyn_peer[109] 	lookupStabilitySig:mean 	0.73598616523668
scalar Network.dyn_peer[109] 	lookupHopsSig:mean 	13.75
scalar Network.dyn_peer[110] 	lookupTimeSig:mean 	2.7333333333333
scalar Network.dyn_peer[110] 	lookupStabilitySig:mean 	0.83873903130492
scalar Network.dyn_peer[110] 	lookupHopsSig:mean 	26.666666666667
scalar Network.dyn_peer[111] 	lookupTimeSig:mean 	1.98
scalar Network.dyn_peer[111] 	lookupStabilitySig:mean 	0.82838965514675
scalar Network.dyn_peer[111] 	lookupHopsSig:mean 	18.9
scalar Network.dyn_peer[112] 	lookupTimeSig:mean 	2.35
scalar Network.dyn_peer[112] 	lookupStabilitySig:mean 	0.84244723804295
scalar Network.dyn_peer[112] 	lookupHopsSig:mean 	22.75
scalar Network.dyn_peer[113] 	lookupTimeSig:mean 	3.025
scalar Network.dyn_peer[113] 	lookupStabilitySig:mean 	0.47653741016984
scalar Network.dyn_peer[113] 	lookupHopsSig:mean 	29.5
scalar Network.dyn_peer[114] 	lookupTimeSig:mean 	1.7285714285714
scalar Network.dyn_peer[114] 	lookupStabilitySig:mean 	0.65895464244698
scalar Network.dyn_peer[114] 	lookupHopsSig:mean 	16.428571428571
scalar Network.dyn_peer[115] 	lookupTimeSig:mean 	1.5
scalar Network.dyn_peer[115] 	lookupStabilitySig:mean 	0.38790762424469
scalar Network.dyn_peer[115] 	lookupHopsSig:mean 	14.5
scalar Network.dyn_peer[116] 	lookupTimeSig:mean 	0.98
scalar Network.dyn_peer[116] 	lookupStabilitySig:mean 	0.58514206632972
scalar Network.dyn_peer[116] 	lookupHopsSig:mean 	9
scalar Network.dyn_peer[117] 	lookupTimeSig:mean 	2.0666666666667
scalar Network.dyn_peer[117] 	lookupStabilitySig:mean 	0.51428570846717
scalar Network.dyn_peer[117] 	lookupHopsSig:mean 	20
scalar Network.dyn_peer[118] 	lookupTimeSig:mean 	2.525
scalar Network.dyn_peer[118] 	lookupStabilitySig:mean 	0.53036612551659
scalar Network.dyn_peer[118] 	lookupHopsSig:mean 	24.5
scalar Network.dyn_peer[119] 	lookupTimeSig:mean 	1.3545454545455
scalar Network.dyn_peer[119] 	lookupStabilitySig:mean 	0.76044656492939
scalar Network.dyn_peer[119] 	lookupHopsSig:mean 	12.636363636364
scalar Network.dyn_peer[120] 	lookupTimeSig:mean 	2
scalar Network.dyn_peer[120] 	lookupStabilitySig:mean 	0.48263560732206
scalar Network.dyn_peer[120] 	lookupHopsSig:mean 	19.333333333333
scalar Network.dyn_peer[121] 	lookupTimeSig:mean 	1.3363636363636
scalar Network.dyn_peer[121] 	lookupStabilitySig:mean 	0.8362268965522
scalar Network.dyn_peer[121] 	lookupHopsSig:mean 	12.454545454545
scalar Network.dyn_peer[122] 	lookupTimeSig:mean 	2.52
scalar Network.dyn_peer[122] 	lookupStabilitySig:mean 	0.77248860672116
scalar Network.dyn_peer[122] 	lookupHopsSig:mean 	24.4
scalar Network.dyn_peer[123] 	lookupTimeSig:mean 	1.75
scalar Network.dyn_peer[123] 	lookupStabilitySig:mean 	0.91067115015661
scalar Network.dyn_peer[123] 	lookupHopsSig:mean 	16.666666666667
scalar Network.dyn_peer[124] 	lookupTimeSig:mean 	1.4454545454545
scalar Network.dyn_peer[124] 	lookupStabilitySig:mean 	0.91447576325895
scalar Network.dyn_peer[124] 	lookupHopsSig:mean 	13.545454545455
scalar Network.dyn_peer[125] 	lookupTimeSig:mean 	1.7454545454545
scalar Network.dyn_peer[125] 	lookupStabilitySig:mean 	0.82407187492671
scalar Network.dyn_peer[125] 	lookupHopsSig:mean 	16.545454545455
scalar Network.dyn_peer[126] 	lookupTimeSig:mean 	2.28
scalar Network.dyn_peer[126] 	lookupStabilitySig:mean 	0.86577424965799
scalar Network.dyn_peer[126] 	lookupHopsSig:mean 	22
scalar Network.dyn_peer[127] 	lookupTimeSig:mean 	2.875
scalar Network.dyn_peer[127] 	lookupStabilitySig:mean 	0.79872406739742
scalar Network.dyn_peer[127] 	lookupHopsSig:mean 	28
scalar Network.dyn_peer[128] 	lookupTimeSig:mean 	3.075
scalar Network.dyn_peer[128] 	lookupStabilitySig:mean 	0.83225928246975
scalar Network.dyn_peer[128] 	lookupHopsSig:mean 	30
scalar Network.dyn_peer[129] 	lookupTimeSig:mean 	3.025
scalar Network.dyn_peer[129] 	lookupStabilitySig:mean 	0.75325619336218
scalar Network.dyn_peer[129] 	lookupHopsSig:mean 	29.5
scalar Network.dyn_peer[130] 	lookupTimeSig:mean 	1.98
scalar Network.dyn_peer[130] 	lookupStabilitySig:mean 	0.56253931298852
scalar Network.dyn_peer[130] 	lookupHopsSig:mean 	19
scalar Network.dyn_peer[131] 	lookupTimeSig:mean 	2.65
scalar Network.dyn_peer[131] 	lookupStabilitySig:mean 	0.57621420477517
scalar Network.dyn_peer[131] 	lookupHopsSig:mean 	25.75
scalar Network.dyn_peer[132] 	lookupTimeSig:mean 	2
scalar Network.dyn_peer[132] 	lookupStabilitySig:mean 	0.39557262510061
scalar Network.dyn_peer[132] 	lookupHopsSig:mean 	19.25
scalar Network.dyn_peer[133] 	lookupTimeSig:mean 	4.15
scalar Network.dyn_peer[133] 	lookupStabilitySig:mean 	0.59038785891607
scalar Network.dyn_peer[133] 	lookupHopsSig:mean 	40.75
scalar Network.dyn_peer[134] 	lookupTimeSig:mean 	1.7571428571429
scalar Network.dyn_peer[134] 	lookupStabilitySig:mean 	0.89745106548071
scalar Network.dyn_peer[134] 	lookupHopsSig:mean 	16.714285714286
scalar Network.dyn_peer[135] 	lookupTimeSig:mean 	2.16
scalar Network.dyn_peer[135] 	lookupStabilitySig:mean 	0.81320827156305
scalar Network.dyn_peer[135] 	lookupHopsSig:mean 	20.8
scalar Network.dyn_peer[136] 	lookupTimeSig:mean 	1.7714285714286
scalar Network.dyn_peer[136] 	lookupStabilitySig:mean 	0.88098273027156
scalar Network.dyn_peer[136] 	lookupHopsSig:mean 	16.857142857143
scalar Network.dyn_peer[137] 	lookupTimeSig:mean 	1.1
scalar Network.dyn_peer[137] 	lookupStabilitySig:mean 	0.79705651324581
scalar Network.dyn_peer[137] 	lookupHopsSig:mean 	10.090909090909
scalar Network.dyn_peer[138] 	lookupTimeSig:mean 	3.1
scalar Network.dyn_peer[138] 	lookupStabilitySig:mean 	0.62356952826182
scalar Network.dyn_peer[138] 	lookupHopsSig:mean 	30.333333333333
scalar Network.dyn_peer[139] 	lookupTimeSig:mean 	1.1
scalar Network.dyn_peer[139] 	lookupStabilitySig:mean 	0.39298138022423
scalar Network.dyn_peer[139] 	lookupHopsSig:mean 	10.25
scalar Network.dyn_peer[140] 	lookupTimeSig:mean 	3.575
scalar Network.dyn_peer[140] 	lookupStabilitySig:mean 	0.62046265229583
scalar Network.dyn_peer[140] 	lookupHopsSig:mean 	35
scalar Network.dyn_peer[141] 	lookupTimeSig:mean 	2.8666666666667
scalar Network.dyn_peer[141] 	lookupStabilitySig:mean 	0.73471298068762
scalar Network.dyn_peer[141] 	lookupHopsSig:mean 	28
scalar Network.dyn_peer[142] 	lookupTimeSig:mean 	2.3
scalar Network.dyn_peer[142] 	lookupStabilitySig:mean 	0.67073236352631
scalar Network.dyn_peer[142] 	lookupHopsSig:mean 	22.142857142857
scalar Network.dyn_peer[143] 	lookupTimeSig:mean 	2.875
scalar Network.dyn_peer[143] 	lookupStabilitySig:mean 	0.86046871077269
scalar Network.dyn_peer[143] 	lookupHopsSig:mean 	28
scalar Network.dyn_peer[144] 	lookupTimeSig:mean 	1.9
scalar Network.dyn_peer[144] 	lookupStabilitySig:mean 	0.62616393218438
scalar Network.dyn_peer[144] 	lookupHopsSig:mean 	18.166666666667
scalar Network.dyn_peer[145] 	lookupTimeSig:mean 	4.2333333333333
scalar Network.dyn_peer[145] 	lookupStabilitySig:mean 	0.71499217239519
scalar Network.dyn_peer[145] 	lookupHopsSig:mean 	41.666666666667
scalar Network.dyn_peer[146] 	lookupTimeSig:mean 	1.85
scalar Network.dyn_peer[146] 	lookupStabilitySig:mean 	0.89973065238446
scalar Network.dyn_peer[146] 	lookupHopsSig:mean 	17.6
scalar Network.dyn_peer[147] 	lookupTimeSig:mean 	1.61
scalar Network.dyn_peer[147] 	lookupStabilitySig:mean 	0.95590459490195
scalar Network.dyn_peer[147] 	lookupHopsSig:mean 	15.2
scalar Network.dyn_peer[148] 	lookupTimeSig:mean 	1.9857142857143
scalar Network.dyn_peer[148] 	lookupStabilitySig:mean 	0.81362206142928
scalar Network.dyn_peer[148] 	lookupHopsSig:mean 	19
scalar Network.dyn_peer[149] 	lookupTimeSig:mean 	1.9
scalar Network.dyn_peer[149] 	lookupStabilitySig:mean 	0.85408476181328
scalar Network.dyn_peer[149] 	lookupHopsSig:mean 	18.166666666667
scalar Network.dyn_peer[150] 	lookupTimeSig:mean 	1.3714285714286
scalar Network.dyn_peer[150] 	lookupStabilitySig:mean 	0.67216967731448
scalar Network.dyn_peer[150] 	lookupHopsSig:mean 	12.857142857143
scalar Network.dyn_peer[151] 	lookupTimeSig:mean 	1.7363636363636
scalar Network.dyn_peer[151] 	lookupStabilitySig:mean 	0.84735093883831
scalar Network.dyn_peer[151] 	lookupHopsSig:mean 	16.454545454545
scalar Network.dyn_peer[152] 	lookupTimeSig:mean 	3.02
scalar Network.dyn_peer[152] 	lookupStabilitySig:mean 	0.58393626660109
scalar Network.dyn_peer[152] 	lookupHopsSig:mean 	29.4
scalar Network.dyn_peer[153] 	lookupTimeSig:mean 	1.6714285714286
scalar Network.dyn_peer[153] 	lookupStabilitySig:mean 	0.78808465653232
scalar Network.dyn_peer[153] 	lookupHopsSig:mean 	15.857142857143
scalar Network.dyn_peer[154] 	lookupTimeSig:mean 	1.5071428571429
scalar Network.dyn_peer[154] 	lookupStabilitySig:mean 	0.84677377802187
scalar Network.dyn_peer[154] 	lookupHopsSig:mean 	14.142857142857
scalar Network.dyn_peer[155] 	lookupTimeSig:mean 	1.7818181818182
scalar Network.dyn_peer[155] 	lookupStabilitySig:mean 	0.92899228674783
scalar Network.dyn_peer[155] 	lookupHopsSig:mean 	16.909090909091
scalar Network.dyn_peer[156] 	lookupTimeSig:mean 	1.57
scalar Network.dyn_peer[156] 	lookupStabilitySig:mean 	0.93322189080063
scalar Network.dyn_peer[156] 	lookupHopsSig:mean 	14.8
scalar Network.dyn_peer[157] 	lookupTimeSig:mean 	1.7333333333333
scalar Network.dyn_peer[157] 	lookupStabilitySig:mean 	0.92427606415004
scalar Network.dyn_peer[157] 	lookupHopsSig:mean 	16.5
scalar Network.dyn_peer[158] 	lookupTimeSig:mean 	1.25
scalar Network.dyn_peer[158] 	lookupStabilitySig:mean 	0.72594818260404
scalar Network.dyn_peer[158] 	lookupHopsSig:mean 	11.625
scalar Network.dyn_peer[159] 	lookupTimeSig:mean 	1.225
scalar Network.dyn_peer[159] 	lookupStabilitySig:mean 	0.87955382638029
scalar Network.dyn_peer[159] 	lookupHopsSig:mean 	11.3125
scalar Network.dyn_peer[160] 	lookupTimeSig:mean 	2.1571428571429
scalar Network.dyn_peer[160] 	lookupStabilitySig:mean 	0.86979810121868
scalar Network.dyn_peer[160] 	lookupHopsSig:mean 	20.714285714286
scalar Network.dyn_peer[161] 	lookupTimeSig:mean 	1.6272727272727
scalar Network.dyn_peer[161] 	lookupStabilitySig:mean 	0.94768613360992
scalar Network.dyn_peer[161] 	lookupHopsSig:mean 	15.363636363636
scalar Network.dyn_peer[162] 	lookupTimeSig:mean 	3.14
scalar Network.dyn_peer[162] 	lookupStabilitySig:mean 	0.91080650910735
scalar Network.dyn_peer[162] 	lookupHopsSig:mean 	30.6
scalar Network.dyn_peer[163] 	lookupTimeSig:mean 	2.7444444444444
scalar Network.dyn_peer[163] 	lookupStabilitySig:mean 	0.9587196787664
scalar Network.dyn_peer[163] 	lookupHopsSig:mean 	26.555555555556
scalar Network.dyn_peer[164] 	lookupTimeSig:mean 	1.6846153846154
scalar Network.dyn_peer[164] 	lookupStabilitySig:mean 	0.86006261565937
scalar Network.dyn_peer[164] 	lookupHopsSig:mean 	15.923076923077
scalar Network.dyn_peer[165] 	lookupTimeSig:mean 	2.6
scalar Network.dyn_peer[165] 	lookupStabilitySig:mean 	0.85996019723825
scalar Network.dyn_peer[165] 	lookupHopsSig:mean 	25.25
scalar Network.dyn_peer[166] 	lookupTimeSig:mean 	2.6
scalar Network.dyn_peer[166] 	lookupStabilitySig:mean 	0.83402109798044
scalar Network.dyn_peer[166] 	lookupHopsSig:mean 	25.25
scalar Network.dyn_peer[167] 	lookupTimeSig:mean 	1.7375
scalar Network.dyn_peer[167] 	lookupStabilitySig:mean 	0.84534512925893
scalar Network.dyn_peer[167] 	lookupHopsSig:mean 	16.5
scalar Network.dyn_peer[168] 	lookupTimeSig:mean 	2.2666666666667
scalar Network.dyn_peer[168] 	lookupStabilitySig:mean 	0.33883696297805
scalar Network.dyn_peer[168] 	lookupHopsSig:mean 	22
scalar Network.dyn_peer[169] 	lookupTimeSig:mean 	1.7333333333333
scalar Network.dyn_peer[169] 	lookupStabilitySig:mean 	0.59652826935053
scalar Network.dyn_peer[169] 	lookupHopsSig:mean 	16.666666666667
scalar Network.dyn_peer[170] 	lookupTimeSig:mean 	1.6222222222222
scalar Network.dyn_peer[170] 	lookupStabilitySig:mean 	0.89046636937807
scalar Network.dyn_peer[170] 	lookupHopsSig:mean 	15.333333333333
scalar Network.dyn_peer[171] 	lookupTimeSig:mean 	2.15
scalar Network.dyn_peer[171] 	lookupStabilitySig:mean 	0.56078821700066
scalar Network.dyn_peer[171] 	lookupHopsSig:mean 	20.75
scalar Network.dyn_peer[172] 	lookupTimeSig:mean 	0.92
scalar Network.dyn_peer[172] 	lookupStabilitySig:mean 	0.76841197442263
scalar Network.dyn_peer[172] 	lookupHopsSig:mean 	8.3
scalar Network.dyn_peer[173] 	lookupTimeSig:mean 	1.7285714285714
scalar Network.dyn_peer[173] 	lookupStabilitySig:mean 	0.90400353340166
scalar Network.dyn_peer[173] 	lookupHopsSig:mean 	16.428571428571
scalar Network.dyn_peer[174] 	lookupTimeSig:mean 	0.93076923076923
scalar Network.dyn_peer[174] 	lookupStabilitySig:mean 	0.87379897041963
scalar Network.dyn_peer[174] 	lookupHopsSig:mean 	8.3846153846154
scalar Network.dyn_peer[175] 	lookupTimeSig:mean 	1.35
scalar Network.dyn_peer[175] 	lookupStabilitySig:mean 	0.57997320654492
scalar Network.dyn_peer[175] 	lookupHopsSig:mean 	12.666666666667
scalar Network.dyn_peer[176] 	lookupTimeSig:mean 	1.7
scalar Network.dyn_peer[176] 	lookupStabilitySig:mean 	0.93451813654974
scalar Network.dyn_peer[176] 	lookupHopsSig:mean 	16.066666666667
scalar Network.dyn_peer[177] 	lookupTimeSig:mean 	1.44
scalar Network.dyn_peer[177] 	lookupStabilitySig:mean 	0.91028352039866
scalar Network.dyn_peer[177] 	lookupHopsSig:mean 	13.5
scalar Network.dyn_peer[178] 	lookupTimeSig:mean 	1.55
scalar Network.dyn_peer[178] 	lookupStabilitySig:mean 	0.77000452857465
scalar Network.dyn_peer[178] 	lookupHopsSig:mean 	14.75
scalar Network.dyn_peer[179] 	lookupTimeSig:mean 	2.4
scalar Network.dyn_peer[179] 	lookupStabilitySig:mean 	0.12781664729118
scalar Network.dyn_peer[179] 	lookupHopsSig:mean 	23.5
scalar Network.dyn_peer[180] 	lookupTimeSig:mean 	1.14
scalar Network.dyn_peer[180] 	lookupStabilitySig:mean 	0.79315780019388
scalar Network.dyn_peer[180] 	lookupHopsSig:mean 	10.5
scalar Network.dyn_peer[181] 	lookupTimeSig:mean 	3.075
scalar Network.dyn_peer[181] 	lookupStabilitySig:mean 	0.66939787566662
scalar Network.dyn_peer[181] 	lookupHopsSig:mean 	30
scalar Network.dyn_peer[182] 	lookupTimeSig:mean 	1.8
scalar Network.dyn_peer[182] 	lookupStabilitySig:mean 	0.73184247426689
scalar Network.dyn_peer[182] 	lookupHopsSig:mean 	17.2
scalar Network.dyn_peer[183] 	lookupTimeSig:mean 	3.375
scalar Network.dyn_peer[183] 	lookupStabilitySig:mean 	0.80728674167767
scalar Network.dyn_peer[183] 	lookupHopsSig:mean 	33
scalar Network.dyn_peer[184] 	lookupTimeSig:mean 	1.8636363636364
scalar Network.dyn_peer[184] 	lookupStabilitySig:mean 	0.89316263028675
scalar Network.dyn_peer[184] 	lookupHopsSig:mean 	17.727272727273
scalar Network.dyn_peer[185] 	lookupTimeSig:mean 	1.6222222222222
scalar Network.dyn_peer[185] 	lookupStabilitySig:mean 	0.90494654099974
scalar Network.dyn_peer[185] 	lookupHopsSig:mean 	15.333333333333
scalar Network.dyn_peer[186] 	lookupTimeSig:mean 	1.96
scalar Network.dyn_peer[186] 	lookupStabilitySig:mean 	0.69179696701467
scalar Network.dyn_peer[186] 	lookupHopsSig:mean 	18.8
scalar Network.dyn_peer[187] 	lookupTimeSig:mean 	1.525
scalar Network.dyn_peer[187] 	lookupStabilitySig:mean 	0.53681998886168
scalar Network.dyn_peer[187] 	lookupHopsSig:mean 	14.5
scalar Network.dyn_peer[188] 	lookupTimeSig:mean 	2.4333333333333
scalar Network.dyn_peer[188] 	lookupStabilitySig:mean 	0.94891977108394
scalar Network.dyn_peer[188] 	lookupHopsSig:mean 	23.5
scalar Network.dyn_peer[189] 	lookupTimeSig:mean 	2.0555555555556
scalar Network.dyn_peer[189] 	lookupStabilitySig:mean 	0.9030011927502
scalar Network.dyn_peer[189] 	lookupHopsSig:mean 	19.666666666667
scalar Network.dyn_peer[190] 	lookupTimeSig:mean 	2.65
scalar Network.dyn_peer[190] 	lookupStabilitySig:mean 	0.86856746068224
scalar Network.dyn_peer[190] 	lookupHopsSig:mean 	25.75
scalar Network.dyn_peer[191] 	lookupTimeSig:mean 	1.7636363636364
scalar Network.dyn_peer[191] 	lookupStabilitySig:mean 	0.83669813337143
scalar Network.dyn_peer[191] 	lookupHopsSig:mean 	16.727272727273
scalar Network.dyn_peer[192] 	lookupTimeSig:mean 	2.1625
scalar Network.dyn_peer[192] 	lookupStabilitySig:mean 	0.95532215206185
scalar Network.dyn_peer[192] 	lookupHopsSig:mean 	20.75
scalar Network.dyn_peer[193] 	lookupTimeSig:mean 	1.775
scalar Network.dyn_peer[193] 	lookupStabilitySig:mean 	0.88870271784253
scalar Network.dyn_peer[193] 	lookupHopsSig:mean 	16.875
scalar Network.dyn_peer[194] 	lookupTimeSig:mean 	2.01
scalar Network.dyn_peer[194] 	lookupStabilitySig:mean 	0.90706712000538
scalar Network.dyn_peer[194] 	lookupHopsSig:mean 	19.2
scalar Network.dyn_peer[195] 	lookupTimeSig:mean 	1.9375
scalar Network.dyn_peer[195] 	lookupStabilitySig:mean 	0.95033107080963
scalar Network.dyn_peer[195] 	lookupHopsSig:mean 	18.5
scalar Network.dyn_peer[196] 	lookupTimeSig:mean 	2.05
scalar Network.dyn_peer[196] 	lookupStabilitySig:mean 	0.20606884360313
scalar Network.dyn_peer[196] 	lookupHopsSig:mean 	20
scalar Network.dyn_peer[197] 	lookupTimeSig:mean 	1.86
scalar Network.dyn_peer[197] 	lookupStabilitySig:mean 	0.83935647122562
scalar Network.dyn_peer[197] 	lookupHopsSig:mean 	17.8
scalar Network.dyn_peer[198] 	lookupTimeSig:mean 	2.4666666666667
scalar Network.dyn_peer[198] 	lookupStabilitySig:mean 	0.89968093215591
scalar Network.dyn_peer[198] 	lookupHopsSig:mean 	23.777777777778
scalar Network.dyn_peer[199] 	lookupTimeSig:mean 	1.4357142857143
scalar Network.dyn_peer[199] 	lookupStabilitySig:mean 	0.93100619296144
scalar Network.dyn_peer[199] 	lookupHopsSig:mean 	13.428571428571
scalar Network.dyn_peer[200] 	lookupTimeSig:mean 	1.35
scalar Network.dyn_peer[200] 	lookupStabilitySig:mean 	0.080000013113022
scalar Network.dyn_peer[200] 	lookupHopsSig:mean 	13
scalar Network.dyn_peer[201] 	lookupTimeSig:mean 	1.925
scalar Network.dyn_peer[201] 	lookupStabilitySig:mean 	0.57237815670669
scalar Network.dyn_peer[201] 	lookupHopsSig:mean 	18.5
scalar Network.dyn_peer[202] 	lookupTimeSig:mean 	1.7384615384615
scalar Network.dyn_peer[202] 	lookupStabilitySig:mean 	0.84304516017437
scalar Network.dyn_peer[202] 	lookupHopsSig:mean 	16.461538461538
scalar Network.dyn_peer[203] 	lookupTimeSig:mean 	2.5666666666667
scalar Network.dyn_peer[203] 	lookupStabilitySig:mean 	0.31925112505754
scalar Network.dyn_peer[203] 	lookupHopsSig:mean 	25
scalar Network.dyn_peer[204] 	lookupTimeSig:mean 	1.6928571428571
scalar Network.dyn_peer[204] 	lookupStabilitySig:mean 	0.92886687169916
scalar Network.dyn_peer[204] 	lookupHopsSig:mean 	16
scalar Network.dyn_peer[205] 	lookupTimeSig:mean 	2.25
scalar Network.dyn_peer[205] 	lookupStabilitySig:mean 	0.88979388090471
scalar Network.dyn_peer[205] 	lookupHopsSig:mean 	21.666666666667
scalar Network.dyn_peer[206] 	lookupTimeSig:mean 	2.76
scalar Network.dyn_peer[206] 	lookupStabilitySig:mean 	0.83313813172281
scalar Network.dyn_peer[206] 	lookupHopsSig:mean 	26.8
scalar Network.dyn_peer[207] 	lookupTimeSig:mean 	2.125
scalar Network.dyn_peer[207] 	lookupStabilitySig:mean 	0.90449978038669
scalar Network.dyn_peer[207] 	lookupHopsSig:mean 	20.375
scalar Network.dyn_peer[208] 	lookupTimeSig:mean 	1.675
scalar Network.dyn_peer[208] 	lookupStabilitySig:mean 	0.9348736712127
scalar Network.dyn_peer[208] 	lookupHopsSig:mean 	15.875
scalar Network.dyn_peer[209] 	lookupTimeSig:mean 	2.3666666666667
scalar Network.dyn_peer[209] 	lookupStabilitySig:mean 	0.46801605820656
scalar Network.dyn_peer[209] 	lookupHopsSig:mean 	23
scalar Network.dyn_peer[210] 	lookupTimeSig:mean 	2.5125
scalar Network.dyn_peer[210] 	lookupStabilitySig:mean 	0.94644374505151
scalar Network.dyn_peer[210] 	lookupHopsSig:mean 	24.25
scalar Network.dyn_peer[211] 	lookupTimeSig:mean 	2.725
scalar Network.dyn_peer[211] 	lookupStabilitySig:mean 	0.80751522345236
scalar Network.dyn_peer[211] 	lookupHopsSig:mean 	26.5
scalar Network.dyn_peer[212] 	lookupTimeSig:mean 	2.275
scalar Network.dyn_peer[212] 	lookupStabilitySig:mean 	0.60871942527592
scalar Network.dyn_peer[212] 	lookupHopsSig:mean 	22
scalar Network.dyn_peer[213] 	lookupTimeSig:mean 	1.575
scalar Network.dyn_peer[213] 	lookupStabilitySig:mean 	0.74241421325132
scalar Network.dyn_peer[213] 	lookupHopsSig:mean 	14.875
scalar Network.dyn_peer[214] 	lookupTimeSig:mean 	5.45
scalar Network.dyn_peer[214] 	lookupStabilitySig:mean 	0.83115492388606
scalar Network.dyn_peer[214] 	lookupHopsSig:mean 	54
scalar Network.dyn_peer[215] 	lookupTimeSig:mean 	3.3
scalar Network.dyn_peer[215] 	lookupStabilitySig:mean 	0.75566363210479
scalar Network.dyn_peer[215] 	lookupHopsSig:mean 	32.333333333333
scalar Network.dyn_peer[216] 	lookupTimeSig:mean 	3.3
scalar Network.dyn_peer[216] 	lookupStabilitySig:mean 	0.46923550218344
scalar Network.dyn_peer[216] 	lookupHopsSig:mean 	32.5
scalar Network.dyn_peer[217] 	lookupTimeSig:mean 	2.3
scalar Network.dyn_peer[217] 	lookupStabilitySig:mean 	0.94058288796805
scalar Network.dyn_peer[217] 	lookupHopsSig:mean 	22.083333333333
scalar Network.dyn_peer[218] 	lookupTimeSig:mean 	1.9333333333333
scalar Network.dyn_peer[218] 	lookupStabilitySig:mean 	0.6442577081422
scalar Network.dyn_peer[218] 	lookupHopsSig:mean 	18.666666666667
scalar Network.dyn_peer[219] 	lookupTimeSig:mean 	3.7166666666667
scalar Network.dyn_peer[219] 	lookupStabilitySig:mean 	0.94067310914397
scalar Network.dyn_peer[219] 	lookupHopsSig:mean 	36.333333333333
scalar Network.dyn_peer[220] 	lookupTimeSig:mean 	1.4333333333333
scalar Network.dyn_peer[220] 	lookupStabilitySig:mean 	0.86521025100309
scalar Network.dyn_peer[220] 	lookupHopsSig:mean 	13.444444444444
scalar Network.dyn_peer[221] 	lookupTimeSig:mean 	1.1
scalar Network.dyn_peer[221] 	lookupStabilitySig:mean 	0.49414840787649
scalar Network.dyn_peer[221] 	lookupHopsSig:mean 	10.2
scalar Network.dyn_peer[222] 	lookupTimeSig:mean 	2.6
scalar Network.dyn_peer[222] 	lookupStabilitySig:mean 	0.68081301450729
scalar Network.dyn_peer[222] 	lookupHopsSig:mean 	25.5
scalar Network.dyn_peer[223] 	lookupTimeSig:mean 	1.5222222222222
scalar Network.dyn_peer[223] 	lookupStabilitySig:mean 	0.70607968430138
scalar Network.dyn_peer[223] 	lookupHopsSig:mean 	14.333333333333
scalar Network.dyn_peer[224] 	lookupTimeSig:mean 	1.62
scalar Network.dyn_peer[224] 	lookupStabilitySig:mean 	0.55459271296859
scalar Network.dyn_peer[224] 	lookupHopsSig:mean 	15.4
scalar Network.dyn_peer[225] 	lookupTimeSig:mean 	1.55
scalar Network.dyn_peer[225] 	lookupStabilitySig:mean 	0.50547850574367
scalar Network.dyn_peer[225] 	lookupHopsSig:mean 	14.75
scalar Network.dyn_peer[226] 	lookupTimeSig:mean 	2.1666666666667
scalar Network.dyn_peer[226] 	lookupStabilitySig:mean 	0.88881618032853
scalar Network.dyn_peer[226] 	lookupHopsSig:mean 	20.833333333333
scalar Network.dyn_peer[227] 	lookupTimeSig:mean 	1.6583333333333
scalar Network.dyn_peer[227] 	lookupStabilitySig:mean 	0.94153694622219
scalar Network.dyn_peer[227] 	lookupHopsSig:mean 	15.666666666667
scalar Network.dyn_peer[228] 	lookupTimeSig:mean 	1.825
scalar Network.dyn_peer[228] 	lookupStabilitySig:mean 	0.89891713293036
scalar Network.dyn_peer[228] 	lookupHopsSig:mean 	17.375
scalar Network.dyn_peer[229] 	lookupTimeSig:mean 	1.95
scalar Network.dyn_peer[229] 	lookupStabilitySig:mean 	0.6540295034647
scalar Network.dyn_peer[229] 	lookupHopsSig:mean 	18.75
scalar Network.dyn_peer[230] 	lookupTimeSig:mean 	2.6666666666667
scalar Network.dyn_peer[230] 	lookupStabilitySig:mean 	0.86756216998522
scalar Network.dyn_peer[230] 	lookupHopsSig:mean 	25.833333333333
scalar Network.dyn_peer[231] 	lookupTimeSig:mean 	1.8375
scalar Network.dyn_peer[231] 	lookupStabilitySig:mean 	0.93989411613438
scalar Network.dyn_peer[231] 	lookupHopsSig:mean 	17.5
scalar Network.dyn_peer[232] 	lookupTimeSig:mean 	2.0181818181818
scalar Network.dyn_peer[232] 	lookupStabilitySig:mean 	0.95010619983077
scalar Network.dyn_peer[232] 	lookupHopsSig:mean 	19.272727272727
scalar Network.dyn_peer[233] 	lookupTimeSig:mean 	4.25
scalar Network.dyn_peer[233] 	lookupStabilitySig:mean 	0.81611375091597
scalar Network.dyn_peer[233] 	lookupHopsSig:mean 	41.75
scalar Network.dyn_peer[234] 	lookupTimeSig:mean 	1.5714285714286
scalar Network.dyn_peer[234] 	lookupStabilitySig:mean 	0.91511658140059
scalar Network.dyn_peer[234] 	lookupHopsSig:mean 	14.857142857143
scalar Network.dyn_peer[235] 	lookupTimeSig:mean 	2.0625
scalar Network.dyn_peer[235] 	lookupStabilitySig:mean 	0.87402271927567
scalar Network.dyn_peer[235] 	lookupHopsSig:mean 	19.75
scalar Network.dyn_peer[236] 	lookupTimeSig:mean 	2.16
scalar Network.dyn_peer[236] 	lookupStabilitySig:mean 	0.75487878918648
scalar Network.dyn_peer[236] 	lookupHopsSig:mean 	20.8
scalar Network.dyn_peer[237] 	lookupTimeSig:mean 	2.0666666666667
scalar Network.dyn_peer[237] 	lookupStabilitySig:mean 	0.80286149991055
scalar Network.dyn_peer[237] 	lookupHopsSig:mean 	19.833333333333
scalar Network.dyn_peer[238] 	lookupTimeSig:mean 	6.35
scalar Network.dyn_peer[238] 	lookupStabilitySig:mean 	0.63075301796198
scalar Network.dyn_peer[238] 	lookupHopsSig:mean 	63
scalar Network.dyn_peer[239] 	lookupTimeSig:mean 	1.9166666666667
scalar Network.dyn_peer[239] 	lookupStabilitySig:mean 	0.91997782051718
scalar Network.dyn_peer[239] 	lookupHopsSig:mean 	18.25
scalar Network.dyn_peer[240] 	lookupTimeSig:mean 	2.0727272727273
scalar Network.dyn_peer[240] 	lookupStabilitySig:mean 	0.94760949689556
scalar Network.dyn_peer[240] 	lookupHopsSig:mean 	19.818181818182
scalar Network.dyn_peer[241] 	lookupTimeSig:mean 	1.45
scalar Network.dyn_peer[241] 	lookupStabilitySig:mean 	0.92762218246935
scalar Network.dyn_peer[241] 	lookupHopsSig:mean 	13.625
scalar Network.dyn_peer[242] 	lookupTimeSig:mean 	0.83333333333333
scalar Network.dyn_peer[242] 	lookupStabilitySig:mean 	0.3901515007019
scalar Network.dyn_peer[242] 	lookupHopsSig:mean 	7.6666666666667
scalar Network.dyn_peer[243] 	lookupTimeSig:mean 	2.8142857142857
scalar Network.dyn_peer[243] 	lookupStabilitySig:mean 	0.95396016957238
scalar Network.dyn_peer[243] 	lookupHopsSig:mean 	27.285714285714
scalar Network.dyn_peer[244] 	lookupTimeSig:mean 	5.55
scalar Network.dyn_peer[244] 	lookupStabilitySig:mean 	0.63820594549179
scalar Network.dyn_peer[244] 	lookupHopsSig:mean 	55
scalar Network.dyn_peer[245] 	lookupTimeSig:mean 	2.375
scalar Network.dyn_peer[245] 	lookupStabilitySig:mean 	0.44491291046143
scalar Network.dyn_peer[245] 	lookupHopsSig:mean 	23
scalar Network.dyn_peer[246] 	lookupTimeSig:mean 	2
scalar Network.dyn_peer[246] 	lookupStabilitySig:mean 	0.90254168372069
scalar Network.dyn_peer[246] 	lookupHopsSig:mean 	19.142857142857
scalar Network.dyn_peer[247] 	lookupTimeSig:mean 	2.2
scalar Network.dyn_peer[247] 	lookupStabilitySig:mean 	0.77589364097055
scalar Network.dyn_peer[247] 	lookupHopsSig:mean 	21.142857142857
scalar Network.dyn_peer[248] 	lookupTimeSig:mean 	2.4
scalar Network.dyn_peer[248] 	lookupStabilitySig:mean 	0.71226084679365
scalar Network.dyn_peer[248] 	lookupHopsSig:mean 	23.2
scalar Network.dyn_peer[249] 	lookupTimeSig:mean 	1.2636363636364
scalar Network.dyn_peer[249] 	lookupStabilitySig:mean 	0.8225962897678
scalar Network.dyn_peer[249] 	lookupHopsSig:mean 	11.727272727273
scalar Network.dyn_peer[250] 	lookupTimeSig:mean 	2.0583333333333
scalar Network.dyn_peer[250] 	lookupStabilitySig:mean 	0.94512974583389
scalar Network.dyn_peer[250] 	lookupHopsSig:mean 	19.666666666667
scalar Network.dyn_peer[251] 	lookupTimeSig:mean 	1.1416666666667
scalar Network.dyn_peer[251] 	lookupStabilitySig:mean 	0.77161794280012
scalar Network.dyn_peer[251] 	lookupHopsSig:mean 	10.5
scalar Network.dyn_peer[252] 	lookupTimeSig:mean 	1.92
scalar Network.dyn_peer[252] 	lookupStabilitySig:mean 	0.75817619785666
scalar Network.dyn_peer[252] 	lookupHopsSig:mean 	18.4
scalar Network.dyn_peer[253] 	lookupTimeSig:mean 	1.03
scalar Network.dyn_peer[253] 	lookupStabilitySig:mean 	0.84759697392583
scalar Network.dyn_peer[253] 	lookupHopsSig:mean 	9.4
scalar Network.dyn_peer[254] 	lookupTimeSig:mean 	1.975
scalar Network.dyn_peer[254] 	lookupStabilitySig:mean 	0.64843497239053
scalar Network.dyn_peer[254] 	lookupHopsSig:mean 	19
scalar Network.dyn_peer[255] 	lookupTimeSig:mean 	4.35
scalar Network.dyn_peer[255] 	lookupStabilitySig:mean 	0.60222651809454
scalar Network.dyn_peer[255] 	lookupHopsSig:mean 	43
scalar Network.dyn_peer[256] 	lookupTimeSig:mean 	2.0545454545455
scalar Network.dyn_peer[256] 	lookupStabilitySig:mean 	0.90188230116936
scalar Network.dyn_peer[256] 	lookupHopsSig:mean 	19.636363636364
scalar Network.dyn_peer[257] 	lookupTimeSig:mean 	2.0714285714286
scalar Network.dyn_peer[257] 	lookupStabilitySig:mean 	0.79125926177949
scalar Network.dyn_peer[257] 	lookupHopsSig:mean 	19.857142857143
scalar Network.dyn_peer[258] 	lookupTimeSig:mean 	1.075
scalar Network.dyn_peer[258] 	lookupStabilitySig:mean 	0.60071618482471
scalar Network.dyn_peer[258] 	lookupHopsSig:mean 	10
scalar Network.dyn_peer[259] 	lookupTimeSig:mean 	1.975
scalar Network.dyn_peer[259] 	lookupStabilitySig:mean 	0.78528558835387
scalar Network.dyn_peer[259] 	lookupHopsSig:mean 	19
scalar Network.dyn_peer[260] 	lookupTimeSig:mean 	1.3222222222222
scalar Network.dyn_peer[260] 	lookupStabilitySig:mean 	0.79919878993597
scalar Network.dyn_peer[260] 	lookupHopsSig:mean 	12.333333333333
scalar Network.dyn_peer[261] 	lookupTimeSig:mean 	1.4142857142857
scalar Network.dyn_peer[261] 	lookupStabilitySig:mean 	0.71099468134344
scalar Network.dyn_peer[261] 	lookupHopsSig:mean 	13.285714285714
scalar Network.dyn_peer[262] 	lookupTimeSig:mean 	3.5333333333333
scalar Network.dyn_peer[262] 	lookupStabilitySig:mean 	0.73770724236965
scalar Network.dyn_peer[262] 	lookupHopsSig:mean 	34.666666666667
scalar Network.dyn_peer[263] 	lookupTimeSig:mean 	3.6333333333333
scalar Network.dyn_peer[263] 	lookupStabilitySig:mean 	0.83250193794568
scalar Network.dyn_peer[263] 	lookupHopsSig:mean 	35.666666666667
scalar Network.dyn_peer[264] 	lookupTimeSig:mean 	3.16
scalar Network.dyn_peer[264] 	lookupStabilitySig:mean 	0.91697900202125
scalar Network.dyn_peer[264] 	lookupHopsSig:mean 	30.8
scalar Network.dyn_peer[265] 	lookupTimeSig:mean 	1.3
scalar Network.dyn_peer[265] 	lookupStabilitySig:mean 	0.56958874315023
scalar Network.dyn_peer[265] 	lookupHopsSig:mean 	12.25
scalar Network.dyn_peer[266] 	lookupTimeSig:mean 	1.45
scalar Network.dyn_peer[266] 	lookupStabilitySig:mean 	0.80640239047352
scalar Network.dyn_peer[266] 	lookupHopsSig:mean 	13.625
scalar Network.dyn_peer[267] 	lookupTimeSig:mean 	0.72
scalar Network.dyn_peer[267] 	lookupStabilitySig:mean 	0.55350140631199
scalar Network.dyn_peer[267] 	lookupHopsSig:mean 	6.4
scalar Network.dyn_peer[268] 	lookupTimeSig:mean 	1.8
scalar Network.dyn_peer[268] 	lookupStabilitySig:mean 	0.90098293094585
scalar Network.dyn_peer[268] 	lookupHopsSig:mean 	17.166666666667
scalar Network.dyn_peer[269] 	lookupTimeSig:mean 	2
scalar Network.dyn_peer[269] 	lookupStabilitySig:mean 	0.79433288487295
scalar Network.dyn_peer[269] 	lookupHopsSig:mean 	19.166666666667
scalar Network.dyn_peer[270] 	lookupTimeSig:mean 	2.09
scalar Network.dyn_peer[270] 	lookupStabilitySig:mean 	0.84584021987393
scalar Network.dyn_peer[270] 	lookupHopsSig:mean 	20
scalar Network.dyn_peer[271] 	lookupTimeSig:mean 	1.48
scalar Network.dyn_peer[271] 	lookupStabilitySig:mean 	0.75846767053008
scalar Network.dyn_peer[271] 	lookupHopsSig:mean 	14
scalar Network.dyn_peer[272] 	lookupTimeSig:mean 	1.1
scalar Network.dyn_peer[272] 	lookupStabilitySig:mean 	0.54870172739029
scalar Network.dyn_peer[272] 	lookupHopsSig:mean 	10.2
scalar Network.dyn_peer[273] 	lookupTimeSig:mean 	1.9
scalar Network.dyn_peer[273] 	lookupStabilitySig:mean 	0.91425727063324
scalar Network.dyn_peer[273] 	lookupHopsSig:mean 	18.125
scalar Network.dyn_peer[274] 	lookupTimeSig:mean 	1.74
scalar Network.dyn_peer[274] 	lookupStabilitySig:mean 	0.85724333198741
scalar Network.dyn_peer[274] 	lookupHopsSig:mean 	16.6
scalar Network.dyn_peer[275] 	lookupTimeSig:mean 	4.4
scalar Network.dyn_peer[275] 	lookupStabilitySig:mean 	0.8327662323912
scalar Network.dyn_peer[275] 	lookupHopsSig:mean 	43.333333333333
scalar Network.dyn_peer[276] 	lookupTimeSig:mean 	2.71
scalar Network.dyn_peer[276] 	lookupStabilitySig:mean 	0.94278487991542
scalar Network.dyn_peer[276] 	lookupHopsSig:mean 	26.2
scalar Network.dyn_peer[277] 	lookupTimeSig:mean 	1.35
scalar Network.dyn_peer[277] 	lookupStabilitySig:mean 	0.63143079852064
scalar Network.dyn_peer[277] 	lookupHopsSig:mean 	12.666666666667
scalar Network.dyn_peer[278] 	lookupTimeSig:mean 	0.92
scalar Network.dyn_peer[278] 	lookupStabilitySig:mean 	0.56141392141581
scalar Network.dyn_peer[278] 	lookupHopsSig:mean 	8.4
scalar Network.dyn_peer[279] 	lookupTimeSig:mean 	3.3
scalar Network.dyn_peer[279] 	lookupStabilitySig:mean 	0.49390020718177
scalar Network.dyn_peer[279] 	lookupHopsSig:mean 	32.333333333333
scalar Network.dyn_peer[280] 	lookupTimeSig:mean 	2.86
scalar Network.dyn_peer[280] 	lookupStabilitySig:mean 	0.91302100270987
scalar Network.dyn_peer[280] 	lookupHopsSig:mean 	27.8
scalar Network.dyn_peer[281] 	lookupTimeSig:mean 	1.6
scalar Network.dyn_peer[281] 	lookupStabilitySig:mean 	0.9547330585911
scalar Network.dyn_peer[281] 	lookupHopsSig:mean 	15.058823529412
scalar Network.dyn_peer[282] 	lookupTimeSig:mean 	2.375
scalar Network.dyn_peer[282] 	lookupStabilitySig:mean 	0.57410523388535
scalar Network.dyn_peer[282] 	lookupHopsSig:mean 	23
scalar Network.dyn_peer[283] 	lookupTimeSig:mean 	1.1916666666667
scalar Network.dyn_peer[283] 	lookupStabilitySig:mean 	0.82261334982468
scalar Network.dyn_peer[283] 	lookupHopsSig:mean 	11
scalar Network.dyn_peer[284] 	lookupTimeSig:mean 	4.6
scalar Network.dyn_peer[284] 	lookupStabilitySig:mean 	0.5631054379046
scalar Network.dyn_peer[284] 	lookupHopsSig:mean 	45.25
scalar Network.dyn_peer[285] 	lookupTimeSig:mean 	1.5666666666667
scalar Network.dyn_peer[285] 	lookupStabilitySig:mean 	0.40576923886935
scalar Network.dyn_peer[285] 	lookupHopsSig:mean 	15
scalar Network.dyn_peer[286] 	lookupTimeSig:mean 	1.25
scalar Network.dyn_peer[286] 	lookupStabilitySig:mean 	0.49219283647835
scalar Network.dyn_peer[286] 	lookupHopsSig:mean 	11.75
scalar Network.dyn_peer[287] 	lookupTimeSig:mean 	3.0666666666667
scalar Network.dyn_peer[287] 	lookupStabilitySig:mean 	0.81604548792044
scalar Network.dyn_peer[287] 	lookupHopsSig:mean 	30
scalar Network.dyn_peer[288] 	lookupTimeSig:mean 	2.5
scalar Network.dyn_peer[288] 	lookupStabilitySig:mean 	0.74243608037276
scalar Network.dyn_peer[288] 	lookupHopsSig:mean 	24.142857142857
scalar Network.dyn_peer[289] 	lookupTimeSig:mean 	3.2285714285714
scalar Network.dyn_peer[289] 	lookupStabilitySig:mean 	0.90615884906479
scalar Network.dyn_peer[289] 	lookupHopsSig:mean 	31.428571428571
scalar Network.dyn_peer[290] 	lookupTimeSig:mean 	1.7454545454545
scalar Network.dyn_peer[290] 	lookupStabilitySig:mean 	0.96662665664388
scalar Network.dyn_peer[290] 	lookupHopsSig:mean 	16.545454545455
scalar Network.dyn_peer[291] 	lookupTimeSig:mean 	1.6153846153846
scalar Network.dyn_peer[291] 	lookupStabilitySig:mean 	0.95146331800005
scalar Network.dyn_peer[291] 	lookupHopsSig:mean 	15.230769230769
scalar Network.dyn_peer[292] 	lookupTimeSig:mean 	2.82
scalar Network.dyn_peer[292] 	lookupStabilitySig:mean 	0.86553680151701
scalar Network.dyn_peer[292] 	lookupHopsSig:mean 	27.4
scalar Network.dyn_peer[293] 	lookupTimeSig:mean 	1.1285714285714
scalar Network.dyn_peer[293] 	lookupStabilitySig:mean 	0.67455551214516
scalar Network.dyn_peer[293] 	lookupHopsSig:mean 	10.428571428571
scalar Network.dyn_peer[294] 	lookupTimeSig:mean 	1.4666666666667
scalar Network.dyn_peer[294] 	lookupStabilitySig:mean 	0.39479511479537
scalar Network.dyn_peer[294] 	lookupHopsSig:mean 	14
scalar Network.dyn_peer[295] 	lookupTimeSig:mean 	1.625
scalar Network.dyn_peer[295] 	lookupStabilitySig:mean 	0.77286047302186
scalar Network.dyn_peer[295] 	lookupHopsSig:mean 	15.5
scalar Network.dyn_peer[296] 	lookupTimeSig:mean 	2.0222222222222
scalar Network.dyn_peer[296] 	lookupStabilitySig:mean 	0.79040595516562
scalar Network.dyn_peer[296] 	lookupHopsSig:mean 	19.333333333333
scalar Network.dyn_peer[297] 	lookupTimeSig:mean 	2.8833333333333
scalar Network.dyn_peer[297] 	lookupStabilitySig:mean 	0.78627850635288
scalar Network.dyn_peer[297] 	lookupHopsSig:mean 	28
scalar Network.dyn_peer[298] 	lookupTimeSig:mean 	2.0142857142857
scalar Network.dyn_peer[298] 	lookupStabilitySig:mean 	0.85510517337493
scalar Network.dyn_peer[298] 	lookupHopsSig:mean 	19.285714285714
scalar Network.dyn_peer[299] 	lookupTimeSig:mean 	2.5428571428571
scalar Network.dyn_peer[299] 	lookupStabilitySig:mean 	0.94615982938558
scalar Network.dyn_peer[299] 	lookupHopsSig:mean 	24.571428571429
scalar Network.dyn_peer[300] 	lookupTimeSig:mean 	2
scalar Network.dyn_peer[300] 	lookupStabilitySig:mean 	0.57340764005979
scalar Network.dyn_peer[300] 	lookupHopsSig:mean 	19.333333333333
scalar Network.dyn_peer[301] 	lookupTimeSig:mean 	1.7166666666667
scalar Network.dyn_peer[301] 	lookupStabilitySig:mean 	0.67111120683451
scalar Network.dyn_peer[301] 	lookupHopsSig:mean 	16.333333333333
scalar Network.dyn_peer[302] 	lookupTimeSig:mean 	2.8666666666667
scalar Network.dyn_peer[302] 	lookupStabilitySig:mean 	0.33013089001179
scalar Network.dyn_peer[302] 	lookupHopsSig:mean 	28
scalar Network.dyn_peer[303] 	lookupTimeSig:mean 	3.85
scalar Network.dyn_peer[303] 	lookupStabilitySig:mean 	0.62084119021893
scalar Network.dyn_peer[303] 	lookupHopsSig:mean 	38
scalar Network.dyn_peer[304] 	lookupTimeSig:mean 	2.0333333333333
scalar Network.dyn_peer[304] 	lookupStabilitySig:mean 	0.68655683783193
scalar Network.dyn_peer[304] 	lookupHopsSig:mean 	19.5
scalar Network.dyn_peer[305] 	lookupTimeSig:mean 	2.44
scalar Network.dyn_peer[305] 	lookupStabilitySig:mean 	0.80405652821064
scalar Network.dyn_peer[305] 	lookupHopsSig:mean 	23.6
scalar Network.dyn_peer[306] 	lookupTimeSig:mean 	1.6625
scalar Network.dyn_peer[306] 	lookupStabilitySig:mean 	0.89007584366482
scalar Network.dyn_peer[306] 	lookupHopsSig:mean 	15.75
scalar Network.dyn_peer[307] 	lookupTimeSig:mean 	3.0333333333333
scalar Network.dyn_peer[307] 	lookupStabilitySig:mean 	0.65009050816298
scalar Network.dyn_peer[307] 	lookupHopsSig:mean 	29.666666666667
scalar Network.dyn_peer[308] 	lookupTimeSig:mean 	2.4
scalar Network.dyn_peer[308] 	lookupStabilitySig:mean 	0.88925157040358
scalar Network.dyn_peer[308] 	lookupHopsSig:mean 	23.2
scalar Network.dyn_peer[309] 	lookupTimeSig:mean 	2.2666666666667
scalar Network.dyn_peer[309] 	lookupStabilitySig:mean 	0.66072598472238
scalar Network.dyn_peer[309] 	lookupHopsSig:mean 	22
scalar Network.dyn_peer[310] 	lookupTimeSig:mean 	1.9333333333333
scalar Network.dyn_peer[310] 	lookupStabilitySig:mean 	0.84189551416785
scalar Network.dyn_peer[310] 	lookupHopsSig:mean 	18.5
scalar Network.dyn_peer[311] 	lookupTimeSig:mean 	1.44
scalar Network.dyn_peer[311] 	lookupStabilitySig:mean 	0.84425469469279
scalar Network.dyn_peer[311] 	lookupHopsSig:mean 	13.5
scalar Network.dyn_peer[312] 	lookupTimeSig:mean 	2.7428571428571
scalar Network.dyn_peer[312] 	lookupStabilitySig:mean 	0.92118248343468
scalar Network.dyn_peer[312] 	lookupHopsSig:mean 	26.571428571429
scalar Network.dyn_peer[313] 	lookupTimeSig:mean 	1.3727272727273
scalar Network.dyn_peer[313] 	lookupStabilitySig:mean 	0.9128141513052
scalar Network.dyn_peer[313] 	lookupHopsSig:mean 	12.818181818182
scalar Network.dyn_peer[314] 	lookupTimeSig:mean 	1.95
scalar Network.dyn_peer[314] 	lookupStabilitySig:mean 	0.74756124056876
scalar Network.dyn_peer[314] 	lookupHopsSig:mean 	18.75
scalar Network.dyn_peer[315] 	lookupTimeSig:mean 	1.6
scalar Network.dyn_peer[315] 	lookupStabilitySig:mean 	0.69715865305625
scalar Network.dyn_peer[315] 	lookupHopsSig:mean 	15.25
scalar Network.dyn_peer[316] 	lookupTimeSig:mean 	2.69
scalar Network.dyn_peer[316] 	lookupStabilitySig:mean 	0.90172535991296
scalar Network.dyn_peer[316] 	lookupHopsSig:mean 	26
scalar Network.dyn_peer[317] 	lookupTimeSig:mean 	1.825
scalar Network.dyn_peer[317] 	lookupStabilitySig:mean 	0.77394891087897
scalar Network.dyn_peer[317] 	lookupHopsSig:mean 	17.375
scalar Network.dyn_peer[318] 	lookupTimeSig:mean 	1.6666666666667
scalar Network.dyn_peer[318] 	lookupStabilitySig:mean 	0.95117425753011
scalar Network.dyn_peer[318] 	lookupHopsSig:mean 	15.777777777778
scalar Network.dyn_peer[319] 	lookupTimeSig:mean 	2.56
scalar Network.dyn_peer[319] 	lookupStabilitySig:mean 	0.91889256387949
scalar Network.dyn_peer[319] 	lookupHopsSig:mean 	24.8
scalar Network.dyn_peer[320] 	lookupTimeSig:mean 	3
scalar Network.dyn_peer[320] 	lookupStabilitySig:mean 	0.74544976403316
scalar Network.dyn_peer[320] 	lookupHopsSig:mean 	29.333333333333
scalar Network.dyn_peer[321] 	lookupTimeSig:mean 	0.98
scalar Network.dyn_peer[321] 	lookupStabilitySig:mean 	0.60390759240836
scalar Network.dyn_peer[321] 	lookupHopsSig:mean 	9
scalar Network.dyn_peer[322] 	lookupTimeSig:mean 	2.8
scalar Network.dyn_peer[322] 	lookupStabilitySig:mean 	0.88335641734302
scalar Network.dyn_peer[322] 	lookupHopsSig:mean 	27.2
scalar Network.dyn_peer[323] 	lookupTimeSig:mean 	3.075
scalar Network.dyn_peer[323] 	lookupStabilitySig:mean 	0.7783707883209
scalar Network.dyn_peer[323] 	lookupHopsSig:mean 	30
scalar Network.dyn_peer[324] 	lookupTimeSig:mean 	1.7454545454545
scalar Network.dyn_peer[324] 	lookupStabilitySig:mean 	0.94246287078766
scalar Network.dyn_peer[324] 	lookupHopsSig:mean 	16.545454545455
scalar Network.dyn_peer[325] 	lookupTimeSig:mean 	1.8
scalar Network.dyn_peer[325] 	lookupStabilitySig:mean 	0.82251456729136
scalar Network.dyn_peer[325] 	lookupHopsSig:mean 	17.25
scalar Network.dyn_peer[326] 	lookupTimeSig:mean 	1.925
scalar Network.dyn_peer[326] 	lookupStabilitySig:mean 	0.55937706306577
scalar Network.dyn_peer[326] 	lookupHopsSig:mean 	18.5
scalar Network.dyn_peer[327] 	lookupTimeSig:mean 	1.125
scalar Network.dyn_peer[327] 	lookupStabilitySig:mean 	0.54635773971677
scalar Network.dyn_peer[327] 	lookupHopsSig:mean 	10.5
scalar Network.dyn_peer[328] 	lookupTimeSig:mean 	2.0571428571429
scalar Network.dyn_peer[328] 	lookupStabilitySig:mean 	0.94001916864155
scalar Network.dyn_peer[328] 	lookupHopsSig:mean 	19.714285714286
scalar Network.dyn_peer[329] 	lookupTimeSig:mean 	1.725
scalar Network.dyn_peer[329] 	lookupStabilitySig:mean 	0.70914835855365
scalar Network.dyn_peer[329] 	lookupHopsSig:mean 	16.375
scalar Network.dyn_peer[330] 	lookupTimeSig:mean 	1.38
scalar Network.dyn_peer[330] 	lookupStabilitySig:mean 	0.60518585070968
scalar Network.dyn_peer[330] 	lookupHopsSig:mean 	13
scalar Network.dyn_peer[331] 	lookupTimeSig:mean 	1.525
scalar Network.dyn_peer[331] 	lookupStabilitySig:mean 	0.54624122008681
scalar Network.dyn_peer[331] 	lookupHopsSig:mean 	14.5
scalar Network.dyn_peer[332] 	lookupTimeSig:mean 	1.9333333333333
scalar Network.dyn_peer[332] 	lookupStabilitySig:mean 	0.84463894149909
scalar Network.dyn_peer[332] 	lookupHopsSig:mean 	18.444444444444
scalar Network.dyn_peer[333] 	lookupTimeSig:mean 	3.1
scalar Network.dyn_peer[333] 	lookupStabilitySig:mean 	0.61100936681032
scalar Network.dyn_peer[333] 	lookupHopsSig:mean 	30.5
scalar Network.dyn_peer[334] 	lookupTimeSig:mean 	2.1875
scalar Network.dyn_peer[334] 	lookupStabilitySig:mean 	0.94632012787042
scalar Network.dyn_peer[334] 	lookupHopsSig:mean 	21
scalar Network.dyn_peer[335] 	lookupTimeSig:mean 	1.9142857142857
scalar Network.dyn_peer[335] 	lookupStabilitySig:mean 	0.73082304692694
scalar Network.dyn_peer[335] 	lookupHopsSig:mean 	18.285714285714
scalar Network.dyn_peer[336] 	lookupTimeSig:mean 	0.775
scalar Network.dyn_peer[336] 	lookupStabilitySig:mean 	0.50269841961563
scalar Network.dyn_peer[336] 	lookupHopsSig:mean 	7
scalar Network.dyn_peer[337] 	lookupTimeSig:mean 	2.65
scalar Network.dyn_peer[337] 	lookupStabilitySig:mean 	0.55308073665947
scalar Network.dyn_peer[337] 	lookupHopsSig:mean 	25.75
scalar Network.dyn_peer[338] 	lookupTimeSig:mean 	1.425
scalar Network.dyn_peer[338] 	lookupStabilitySig:mean 	0.54480222798884
scalar Network.dyn_peer[338] 	lookupHopsSig:mean 	13.5
scalar Network.dyn_peer[339] 	lookupTimeSig:mean 	2.1454545454545
scalar Network.dyn_peer[339] 	lookupStabilitySig:mean 	0.95964359043335
scalar Network.dyn_peer[339] 	lookupHopsSig:mean 	20.545454545455
scalar Network.dyn_peer[340] 	lookupTimeSig:mean 	1.5
scalar Network.dyn_peer[340] 	lookupStabilitySig:mean 	0.78100378066301
scalar Network.dyn_peer[340] 	lookupHopsSig:mean 	14.25
scalar Network.dyn_peer[341] 	lookupTimeSig:mean 	1.2384615384615
scalar Network.dyn_peer[341] 	lookupStabilitySig:mean 	0.86846105987206
scalar Network.dyn_peer[341] 	lookupHopsSig:mean 	11.461538461538
scalar Network.dyn_peer[342] 	lookupTimeSig:mean 	1.625
scalar Network.dyn_peer[342] 	lookupStabilitySig:mean 	0.51951550506055
scalar Network.dyn_peer[342] 	lookupHopsSig:mean 	15.5
scalar Network.dyn_peer[343] 	lookupTimeSig:mean 	3.075
scalar Network.dyn_peer[343] 	lookupStabilitySig:mean 	0.8595857610926
scalar Network.dyn_peer[343] 	lookupHopsSig:mean 	30
scalar Network.dyn_peer[344] 	lookupTimeSig:mean 	2.825
scalar Network.dyn_peer[344] 	lookupStabilitySig:mean 	0.79308320023119
scalar Network.dyn_peer[344] 	lookupHopsSig:mean 	27.5
scalar Network.dyn_peer[345] 	lookupTimeSig:mean 	1.775
scalar Network.dyn_peer[345] 	lookupStabilitySig:mean 	0.58234765101224
scalar Network.dyn_peer[345] 	lookupHopsSig:mean 	17
scalar Network.dyn_peer[346] 	lookupTimeSig:mean 	1.9285714285714
scalar Network.dyn_peer[346] 	lookupStabilitySig:mean 	0.86204223334789
scalar Network.dyn_peer[346] 	lookupHopsSig:mean 	18.428571428571
scalar Network.dyn_peer[347] 	lookupTimeSig:mean 	2.34
scalar Network.dyn_peer[347] 	lookupStabilitySig:mean 	0.87047436051071
scalar Network.dyn_peer[347] 	lookupHopsSig:mean 	22.6
scalar Network.dyn_peer[348] 	lookupTimeSig:mean 	1.52
scalar Network.dyn_peer[348] 	lookupStabilitySig:mean 	0.84810742251575
scalar Network.dyn_peer[348] 	lookupHopsSig:mean 	14.4
scalar Network.dyn_peer[349] 	lookupTimeSig:mean 	3.9
scalar Network.dyn_peer[349] 	lookupStabilitySig:mean 	0.90818522934569
scalar Network.dyn_peer[349] 	lookupHopsSig:mean 	38.25
scalar Network.dyn_peer[350] 	lookupTimeSig:mean 	1.29
scalar Network.dyn_peer[350] 	lookupStabilitySig:mean 	0.77777043716051
scalar Network.dyn_peer[350] 	lookupHopsSig:mean 	12
scalar Network.dyn_peer[351] 	lookupTimeSig:mean 	2.76
scalar Network.dyn_peer[351] 	lookupStabilitySig:mean 	0.72841949798167
scalar Network.dyn_peer[351] 	lookupHopsSig:mean 	26.8
scalar Network.dyn_peer[352] 	lookupTimeSig:mean 	2.39
scalar Network.dyn_peer[352] 	lookupStabilitySig:mean 	0.9062607509084
scalar Network.dyn_peer[352] 	lookupHopsSig:mean 	23
scalar Network.dyn_peer[353] 	lookupTimeSig:mean 	1.275
scalar Network.dyn_peer[353] 	lookupStabilitySig:mean 	0.78976687137038
scalar Network.dyn_peer[353] 	lookupHopsSig:mean 	12
scalar Network.dyn_peer[354] 	lookupTimeSig:mean 	3.025
scalar Network.dyn_peer[354] 	lookupStabilitySig:mean 	0.88261408451945
scalar Network.dyn_peer[354] 	lookupHopsSig:mean 	29.5
scalar Network.dyn_peer[355] 	lookupTimeSig:mean 	2.22
scalar Network.dyn_peer[355] 	lookupStabilitySig:mean 	0.57743056677282
scalar Network.dyn_peer[355] 	lookupHopsSig:mean 	21.4
scalar Network.dyn_peer[356] 	lookupTimeSig:mean 	3.28
scalar Network.dyn_peer[356] 	lookupStabilitySig:mean 	0.8644717451185
scalar Network.dyn_peer[356] 	lookupHopsSig:mean 	32
scalar Network.dyn_peer[357] 	lookupTimeSig:mean 	1.8111111111111
scalar Network.dyn_peer[357] 	lookupStabilitySig:mean 	0.95072280928596
scalar Network.dyn_peer[357] 	lookupHopsSig:mean 	17.222222222222
scalar Network.dyn_peer[358] 	lookupTimeSig:mean 	0.9
scalar Network.dyn_peer[358] 	lookupStabilitySig:mean 	0.37574671705564
scalar Network.dyn_peer[358] 	lookupHopsSig:mean 	8.3333333333333
scalar Network.dyn_peer[359] 	lookupTimeSig:mean 	2.3
scalar Network.dyn_peer[359] 	lookupStabilitySig:mean 	0.55241401990255
scalar Network.dyn_peer[359] 	lookupHopsSig:mean 	22.333333333333
scalar Network.dyn_peer[360] 	lookupTimeSig:mean 	1.8090909090909
scalar Network.dyn_peer[360] 	lookupStabilitySig:mean 	0.95601850134236
scalar Network.dyn_peer[360] 	lookupHopsSig:mean 	17.181818181818
scalar Network.dyn_peer[361] 	lookupTimeSig:mean 	2.1416666666667
scalar Network.dyn_peer[361] 	lookupStabilitySig:mean 	0.81983472965658
scalar Network.dyn_peer[361] 	lookupHopsSig:mean 	20.5
scalar Network.dyn_peer[362] 	lookupTimeSig:mean 	3.9666666666667
scalar Network.dyn_peer[362] 	lookupStabilitySig:mean 	0.4235205501318
scalar Network.dyn_peer[362] 	lookupHopsSig:mean 	39
scalar Network.dyn_peer[363] 	lookupTimeSig:mean 	1.8
scalar Network.dyn_peer[363] 	lookupStabilitySig:mean 	0.82626066654921
scalar Network.dyn_peer[363] 	lookupHopsSig:mean 	17.2
scalar Network.dyn_peer[364] 	lookupTimeSig:mean 	2.66
scalar Network.dyn_peer[364] 	lookupStabilitySig:mean 	0.85600136816502
scalar Network.dyn_peer[364] 	lookupHopsSig:mean 	25.8
scalar Network.dyn_peer[365] 	lookupTimeSig:mean 	2.3666666666667
scalar Network.dyn_peer[365] 	lookupStabilitySig:mean 	0.77480816468596
scalar Network.dyn_peer[365] 	lookupHopsSig:mean 	23
scalar Network.dyn_peer[366] 	lookupTimeSig:mean 	2.1
scalar Network.dyn_peer[366] 	lookupStabilitySig:mean 	0.70804837793112
scalar Network.dyn_peer[366] 	lookupHopsSig:mean 	20.2
scalar Network.dyn_peer[367] 	lookupTimeSig:mean 	1.6
scalar Network.dyn_peer[367] 	lookupStabilitySig:mean 	0.52439438303312
scalar Network.dyn_peer[367] 	lookupHopsSig:mean 	15.333333333333
scalar Network.dyn_peer[368] 	lookupTimeSig:mean 	1.7375
scalar Network.dyn_peer[368] 	lookupStabilitySig:mean 	0.91062409849837
scalar Network.dyn_peer[368] 	lookupHopsSig:mean 	16.5
scalar Network.dyn_peer[369] 	lookupTimeSig:mean 	2.76
scalar Network.dyn_peer[369] 	lookupStabilitySig:mean 	0.91781362080947
scalar Network.dyn_peer[369] 	lookupHopsSig:mean 	26.8
scalar Network.dyn_peer[370] 	lookupTimeSig:mean 	1.0666666666667
scalar Network.dyn_peer[370] 	lookupStabilitySig:mean 	0.7716566605183
scalar Network.dyn_peer[370] 	lookupHopsSig:mean 	9.7777777777778
scalar Network.dyn_peer[371] 	lookupTimeSig:mean 	2.18
scalar Network.dyn_peer[371] 	lookupStabilitySig:mean 	0.70809828937054
scalar Network.dyn_peer[371] 	lookupHopsSig:mean 	21
scalar Network.dyn_peer[372] 	lookupTimeSig:mean 	2.46
scalar Network.dyn_peer[372] 	lookupStabilitySig:mean 	0.79757954403758
scalar Network.dyn_peer[372] 	lookupHopsSig:mean 	23.8
scalar Network.dyn_peer[373] 	lookupTimeSig:mean 	1.8
scalar Network.dyn_peer[373] 	lookupStabilitySig:mean 	0.67373827410241
scalar Network.dyn_peer[373] 	lookupHopsSig:mean 	17.166666666667
scalar Network.dyn_peer[374] 	lookupTimeSig:mean 	1.9857142857143
scalar Network.dyn_peer[374] 	lookupStabilitySig:mean 	0.80098428317745
scalar Network.dyn_peer[374] 	lookupHopsSig:mean 	19
scalar Network.dyn_peer[375] 	lookupTimeSig:mean 	1
scalar Network.dyn_peer[375] 	lookupStabilitySig:mean 	0.3393532683452
scalar Network.dyn_peer[375] 	lookupHopsSig:mean 	9.3333333333333
scalar Network.dyn_peer[376] 	lookupTimeSig:mean 	1.25
scalar Network.dyn_peer[376] 	lookupStabilitySig:mean 	0.69461900244157
scalar Network.dyn_peer[376] 	lookupHopsSig:mean 	11.666666666667
scalar Network.dyn_peer[377] 	lookupTimeSig:mean 	2.5857142857143
scalar Network.dyn_peer[377] 	lookupStabilitySig:mean 	0.93848129641265
scalar Network.dyn_peer[377] 	lookupHopsSig:mean 	25
scalar Network.dyn_peer[378] 	lookupTimeSig:mean 	2.12
scalar Network.dyn_peer[378] 	lookupStabilitySig:mean 	0.82245736345649
scalar Network.dyn_peer[378] 	lookupHopsSig:mean 	20.4
scalar Network.dyn_peer[379] 	lookupTimeSig:mean 	1.4285714285714
scalar Network.dyn_peer[379] 	lookupStabilitySig:mean 	0.68981010493423
scalar Network.dyn_peer[379] 	lookupHopsSig:mean 	13.428571428571
scalar Network.dyn_peer[380] 	lookupTimeSig:mean 	2
scalar Network.dyn_peer[380] 	lookupStabilitySig:mean 	0.96851290665412
scalar Network.dyn_peer[380] 	lookupHopsSig:mean 	19.083333333333
scalar Network.dyn_peer[381] 	lookupTimeSig:mean 	1.8
scalar Network.dyn_peer[381] 	lookupStabilitySig:mean 	0.80728790350258
scalar Network.dyn_peer[381] 	lookupHopsSig:mean 	17.25
scalar Network.dyn_peer[382] 	lookupTimeSig:mean 	1.8333333333333
scalar Network.dyn_peer[382] 	lookupStabilitySig:mean 	0.83234003455275
scalar Network.dyn_peer[382] 	lookupHopsSig:mean 	17.444444444444
scalar Network.dyn_peer[383] 	lookupTimeSig:mean 	2.0857142857143
scalar Network.dyn_peer[383] 	lookupStabilitySig:mean 	0.88661596977285
scalar Network.dyn_peer[383] 	lookupHopsSig:mean 	20
scalar Network.dyn_peer[384] 	lookupTimeSig:mean 	1.475
scalar Network.dyn_peer[384] 	lookupStabilitySig:mean 	0.8191214541439
scalar Network.dyn_peer[384] 	lookupHopsSig:mean 	13.875
scalar Network.dyn_peer[385] 	lookupTimeSig:mean 	0.95
scalar Network.dyn_peer[385] 	lookupStabilitySig:mean 	0.72463475509236
scalar Network.dyn_peer[385] 	lookupHopsSig:mean 	8.6666666666667
scalar Network.dyn_peer[386] 	lookupTimeSig:mean 	2.15
scalar Network.dyn_peer[386] 	lookupStabilitySig:mean 	0.60844981158152
scalar Network.dyn_peer[386] 	lookupHopsSig:mean 	20.75
scalar Network.dyn_peer[387] 	lookupTimeSig:mean 	2.075
scalar Network.dyn_peer[387] 	lookupStabilitySig:mean 	0.87242672266439
scalar Network.dyn_peer[387] 	lookupHopsSig:mean 	19.875
scalar Network.dyn_peer[388] 	lookupTimeSig:mean 	2.15
scalar Network.dyn_peer[388] 	lookupStabilitySig:mean 	0.20080502331257
scalar Network.dyn_peer[388] 	lookupHopsSig:mean 	21
scalar Network.dyn_peer[389] 	lookupTimeSig:mean 	1.8285714285714
scalar Network.dyn_peer[389] 	lookupStabilitySig:mean 	0.76979095502091
scalar Network.dyn_peer[389] 	lookupHopsSig:mean 	17.428571428571
scalar Network.dyn_peer[390] 	lookupTimeSig:mean 	2.3571428571429
scalar Network.dyn_peer[390] 	lookupStabilitySig:mean 	0.95072932987075
scalar Network.dyn_peer[390] 	lookupHopsSig:mean 	22.714285714286
scalar Network.dyn_peer[391] 	lookupTimeSig:mean 	3.1625
scalar Network.dyn_peer[391] 	lookupStabilitySig:mean 	0.92833506397437
scalar Network.dyn_peer[391] 	lookupHopsSig:mean 	30.75
scalar Network.dyn_peer[392] 	lookupTimeSig:mean 	1.6142857142857
scalar Network.dyn_peer[392] 	lookupStabilitySig:mean 	0.8805530869535
scalar Network.dyn_peer[392] 	lookupHopsSig:mean 	15.285714285714
scalar Network.dyn_peer[393] 	lookupTimeSig:mean 	2.325
scalar Network.dyn_peer[393] 	lookupStabilitySig:mean 	0.95996743168992
scalar Network.dyn_peer[393] 	lookupHopsSig:mean 	22.333333333333
scalar Network.dyn_peer[394] 	lookupTimeSig:mean 	1.64
scalar Network.dyn_peer[394] 	lookupStabilitySig:mean 	0.84781005382538
scalar Network.dyn_peer[394] 	lookupHopsSig:mean 	15.6
scalar Network.dyn_peer[395] 	lookupTimeSig:mean 	2.475
scalar Network.dyn_peer[395] 	lookupStabilitySig:mean 	0.6898414939642
scalar Network.dyn_peer[395] 	lookupHopsSig:mean 	24
scalar Network.dyn_peer[396] 	lookupTimeSig:mean 	1.075
scalar Network.dyn_peer[396] 	lookupStabilitySig:mean 	0.6623985376209
scalar Network.dyn_peer[396] 	lookupHopsSig:mean 	10
scalar Network.dyn_peer[397] 	lookupTimeSig:mean 	1.6666666666667
scalar Network.dyn_peer[397] 	lookupStabilitySig:mean 	0.8274388147725
scalar Network.dyn_peer[397] 	lookupHopsSig:mean 	15.777777777778
scalar Network.dyn_peer[398] 	lookupTimeSig:mean 	1.75
scalar Network.dyn_peer[398] 	lookupStabilitySig:mean 	0.60254940669984
scalar Network.dyn_peer[398] 	lookupHopsSig:mean 	16.75
scalar Network.dyn_peer[399] 	lookupTimeSig:mean 	1.6
scalar Network.dyn_peer[399] 	lookupStabilitySig:mean 	0.5461407173425
scalar Network.dyn_peer[399] 	lookupHopsSig:mean 	15.25
scalar Network.dyn_peer[400] 	lookupTimeSig:mean 	1.18
scalar Network.dyn_peer[400] 	lookupStabilitySig:mean 	0.63076224401593
scalar Network.dyn_peer[400] 	lookupHopsSig:mean 	11
scalar Network.dyn_peer[401] 	lookupTimeSig:mean 	2.2
scalar Network.dyn_peer[401] 	lookupStabilitySig:mean 	0.38297872245312
scalar Network.dyn_peer[401] 	lookupHopsSig:mean 	21.5
scalar Network.dyn_peer[402] 	lookupTimeSig:mean 	2.54
scalar Network.dyn_peer[402] 	lookupStabilitySig:mean 	0.84747774954885
scalar Network.dyn_peer[402] 	lookupHopsSig:mean 	24.6
scalar Network.dyn_peer[403] 	lookupTimeSig:mean 	2.675
scalar Network.dyn_peer[403] 	lookupStabilitySig:mean 	0.76819664472714
scalar Network.dyn_peer[403] 	lookupHopsSig:mean 	26
scalar Network.dyn_peer[404] 	lookupTimeSig:mean 	3.4
scalar Network.dyn_peer[404] 	lookupStabilitySig:mean 	0.87343634665012
scalar Network.dyn_peer[404] 	lookupHopsSig:mean 	33.333333333333
scalar Network.dyn_peer[405] 	lookupTimeSig:mean 	1.7777777777778
scalar Network.dyn_peer[405] 	lookupStabilitySig:mean 	0.88408805605852
scalar Network.dyn_peer[405] 	lookupHopsSig:mean 	16.888888888889
scalar Network.dyn_peer[406] 	lookupTimeSig:mean 	2.0909090909091
scalar Network.dyn_peer[406] 	lookupStabilitySig:mean 	0.90888714460148
scalar Network.dyn_peer[406] 	lookupHopsSig:mean 	20
scalar Network.dyn_peer[407] 	lookupTimeSig:mean 	1.65
scalar Network.dyn_peer[407] 	lookupStabilitySig:mean 	0.13018868863583
scalar Network.dyn_peer[407] 	lookupHopsSig:mean 	16
scalar Network.dyn_peer[408] 	lookupTimeSig:mean 	2.6875
scalar Network.dyn_peer[408] 	lookupStabilitySig:mean 	0.94507055426948
scalar Network.dyn_peer[408] 	lookupHopsSig:mean 	26
scalar Network.dyn_peer[409] 	lookupTimeSig:mean 	2.0625
scalar Network.dyn_peer[409] 	lookupStabilitySig:mean 	0.94778733502608
scalar Network.dyn_peer[409] 	lookupHopsSig:mean 	19.75
scalar Network.dyn_peer[410] 	lookupTimeSig:mean 	2.25
scalar Network.dyn_peer[410] 	lookupStabilitySig:mean 	0.84880704836299
scalar Network.dyn_peer[410] 	lookupHopsSig:mean 	21.666666666667
scalar Network.dyn_peer[411] 	lookupTimeSig:mean 	1.825
scalar Network.dyn_peer[411] 	lookupStabilitySig:mean 	0.73417610116303
scalar Network.dyn_peer[411] 	lookupHopsSig:mean 	17.5
scalar Network.dyn_peer[412] 	lookupTimeSig:mean 	1.7857142857143
scalar Network.dyn_peer[412] 	lookupStabilitySig:mean 	0.86350239653672
scalar Network.dyn_peer[412] 	lookupHopsSig:mean 	17
scalar Network.dyn_peer[413] 	lookupTimeSig:mean 	1.6
scalar Network.dyn_peer[413] 	lookupStabilitySig:mean 	0.40053649246693
scalar Network.dyn_peer[413] 	lookupHopsSig:mean 	15.333333333333
scalar Network.dyn_peer[414] 	lookupTimeSig:mean 	1.9
scalar Network.dyn_peer[414] 	lookupStabilitySig:mean 	0.92383899659451
scalar Network.dyn_peer[414] 	lookupHopsSig:mean 	18.142857142857
scalar Network.dyn_peer[415] 	lookupTimeSig:mean 	1.2555555555556
scalar Network.dyn_peer[415] 	lookupStabilitySig:mean 	0.93033745667587
scalar Network.dyn_peer[415] 	lookupHopsSig:mean 	11.666666666667
scalar Network.dyn_peer[416] 	lookupTimeSig:mean 	2.0333333333333
scalar Network.dyn_peer[416] 	lookupStabilitySig:mean 	0.95293972563619
scalar Network.dyn_peer[416] 	lookupHopsSig:mean 	19.416666666667
scalar Network.dyn_peer[417] 	lookupTimeSig:mean 	1.9875
scalar Network.dyn_peer[417] 	lookupStabilitySig:mean 	0.94260389904957
scalar Network.dyn_peer[417] 	lookupHopsSig:mean 	19
scalar Network.dyn_peer[418] 	lookupTimeSig:mean 	1.66
scalar Network.dyn_peer[418] 	lookupStabilitySig:mean 	0.78653469383717
scalar Network.dyn_peer[418] 	lookupHopsSig:mean 	15.8
scalar Network.dyn_peer[419] 	lookupTimeSig:mean 	0.8
scalar Network.dyn_peer[419] 	lookupStabilitySig:mean 	0.59590909443796
scalar Network.dyn_peer[419] 	lookupHopsSig:mean 	7.25
scalar Network.dyn_peer[420] 	lookupTimeSig:mean 	1.3166666666667
scalar Network.dyn_peer[420] 	lookupStabilitySig:mean 	0.76187120905767
scalar Network.dyn_peer[420] 	lookupHopsSig:mean 	12.333333333333
[...]
scalar Network.dyn_peer[895] 	lookupHopsSig:mean 	15.285714285714
scalar Network.dyn_peer[896] 	lookupTimeSig:mean 	1.7076923076923
scalar Network.dyn_peer[896] 	lookupStabilitySig:mean 	0.96425610186102
scalar Network.dyn_peer[896] 	lookupHopsSig:mean 	16.153846153846
scalar Network.dyn_peer[897] 	lookupTimeSig:mean 	2.4
scalar Network.dyn_peer[897] 	lookupStabilitySig:mean 	0.78716233434776
scalar Network.dyn_peer[897] 	lookupHopsSig:mean 	23.333333333333
scalar Network.dyn_peer[898] 	lookupTimeSig:mean 	2.7
scalar Network.dyn_peer[898] 	lookupStabilitySig:mean 	0.56287650763988
scalar Network.dyn_peer[898] 	lookupHopsSig:mean 	26.5
scalar Network.dyn_peer[899] 	lookupTimeSig:mean 	1.3333333333333
scalar Network.dyn_peer[899] 	lookupStabilitySig:mean 	0.76136899762787
scalar Network.dyn_peer[899] 	lookupHopsSig:mean 	12.5
scalar Network.dyn_peer[900] 	lookupTimeSig:mean 	3.2
scalar Network.dyn_peer[900] 	lookupStabilitySig:mean 	0.51982904970646
scalar Network.dyn_peer[900] 	lookupHopsSig:mean 	31.5
scalar Network.dyn_peer[901] 	lookupTimeSig:mean 	2.6
scalar Network.dyn_peer[901] 	lookupStabilitySig:mean 	0.76574106607586
scalar Network.dyn_peer[901] 	lookupHopsSig:mean 	25.25
scalar Network.dyn_peer[902] 	lookupTimeSig:mean 	2.4666666666667
scalar Network.dyn_peer[902] 	lookupStabilitySig:mean 	0.54763176043828
scalar Network.dyn_peer[902] 	lookupHopsSig:mean 	24
scalar Network.dyn_peer[903] 	lookupTimeSig:mean 	1.7
scalar Network.dyn_peer[903] 	lookupStabilitySig:mean 	0.93040804139205
scalar Network.dyn_peer[903] 	lookupHopsSig:mean 	16.142857142857
scalar Network.dyn_peer[904] 	lookupTimeSig:mean 	1.54
scalar Network.dyn_peer[904] 	lookupStabilitySig:mean 	0.94210858037695
scalar Network.dyn_peer[904] 	lookupHopsSig:mean 	14.5
scalar Network.dyn_peer[905] 	lookupTimeSig:mean 	2.0727272727273
scalar Network.dyn_peer[905] 	lookupStabilitySig:mean 	0.96257925711953
scalar Network.dyn_peer[905] 	lookupHopsSig:mean 	19.818181818182
scalar Network.dyn_peer[906] 	lookupTimeSig:mean 	2.1833333333333
scalar Network.dyn_peer[906] 	lookupStabilitySig:mean 	0.96382538838467
scalar Network.dyn_peer[906] 	lookupHopsSig:mean 	20.916666666667
scalar Network.dyn_peer[907] 	lookupTimeSig:mean 	2.22
scalar Network.dyn_peer[907] 	lookupStabilitySig:mean 	0.69452746957541
scalar Network.dyn_peer[907] 	lookupHopsSig:mean 	21.4
scalar Network.dyn_peer[908] 	lookupTimeSig:mean 	1.65
scalar Network.dyn_peer[908] 	lookupStabilitySig:mean 	0.6077358238399
scalar Network.dyn_peer[908] 	lookupHopsSig:mean 	15.75
scalar Network.dyn_peer[909] 	lookupTimeSig:mean 	2.1
scalar Network.dyn_peer[909] 	lookupStabilitySig:mean 	0.95323974271822
scalar Network.dyn_peer[909] 	lookupHopsSig:mean 	20.111111111111
scalar Network.dyn_peer[910] 	lookupTimeSig:mean 	2.3666666666667
scalar Network.dyn_peer[910] 	lookupStabilitySig:mean 	0.82777675241232
scalar Network.dyn_peer[910] 	lookupHopsSig:mean 	23
scalar Network.dyn_peer[911] 	lookupTimeSig:mean 	1.5111111111111
scalar Network.dyn_peer[911] 	lookupStabilitySig:mean 	0.89324589125398
scalar Network.dyn_peer[911] 	lookupHopsSig:mean 	14.222222222222
scalar Network.dyn_peer[912] 	lookupTimeSig:mean 	1.55
scalar Network.dyn_peer[912] 	lookupStabilitySig:mean 	0.89381832303479
scalar Network.dyn_peer[912] 	lookupHopsSig:mean 	14.6
scalar Network.dyn_peer[913] 	lookupTimeSig:mean 	1.16
scalar Network.dyn_peer[913] 	lookupStabilitySig:mean 	0.71278979443014
scalar Network.dyn_peer[913] 	lookupHopsSig:mean 	10.8
scalar Network.dyn_peer[914] 	lookupTimeSig:mean 	3.05
scalar Network.dyn_peer[914] 	lookupStabilitySig:mean 	0.45218845456839
scalar Network.dyn_peer[914] 	lookupHopsSig:mean 	30
scalar Network.dyn_peer[915] 	lookupTimeSig:mean 	3.2
scalar Network.dyn_peer[915] 	lookupStabilitySig:mean 	0.80910425260663
scalar Network.dyn_peer[915] 	lookupHopsSig:mean 	31.5
scalar Network.dyn_peer[916] 	lookupTimeSig:mean 	2.2666666666667
scalar Network.dyn_peer[916] 	lookupStabilitySig:mean 	0.79000562087943
scalar Network.dyn_peer[916] 	lookupHopsSig:mean 	21.833333333333
scalar Network.dyn_peer[917] 	lookupTimeSig:mean 	1.9142857142857
scalar Network.dyn_peer[917] 	lookupStabilitySig:mean 	0.9437450976111
scalar Network.dyn_peer[917] 	lookupHopsSig:mean 	18.285714285714
scalar Network.dyn_peer[918] 	lookupTimeSig:mean 	3.4
scalar Network.dyn_peer[918] 	lookupStabilitySig:mean 	0.77289646118879
scalar Network.dyn_peer[918] 	lookupHopsSig:mean 	33.5
scalar Network.dyn_peer[919] 	lookupTimeSig:mean 	2.475
scalar Network.dyn_peer[919] 	lookupStabilitySig:mean 	0.85292876698077
scalar Network.dyn_peer[919] 	lookupHopsSig:mean 	24
scalar Network.dyn_peer[920] 	lookupTimeSig:mean 	2
scalar Network.dyn_peer[920] 	lookupStabilitySig:mean 	0.95684874963693
scalar Network.dyn_peer[920] 	lookupHopsSig:mean 	19.090909090909
scalar Network.dyn_peer[921] 	lookupTimeSig:mean 	3.6333333333333
scalar Network.dyn_peer[921] 	lookupStabilitySig:mean 	0.94043037419518
scalar Network.dyn_peer[921] 	lookupHopsSig:mean 	35.5
scalar Network.dyn_peer[922] 	lookupTimeSig:mean 	1.2363636363636
scalar Network.dyn_peer[922] 	lookupStabilitySig:mean 	0.92180998720737
scalar Network.dyn_peer[922] 	lookupHopsSig:mean 	11.454545454545
scalar Network.dyn_peer[923] 	lookupTimeSig:mean 	1.4875
scalar Network.dyn_peer[923] 	lookupStabilitySig:mean 	0.90051561698783
scalar Network.dyn_peer[923] 	lookupHopsSig:mean 	14
scalar Network.dyn_peer[924] 	lookupTimeSig:mean 	1.6833333333333
scalar Network.dyn_peer[924] 	lookupStabilitySig:mean 	0.76481663870315
scalar Network.dyn_peer[924] 	lookupHopsSig:mean 	16
scalar Network.dyn_peer[925] 	lookupTimeSig:mean 	1.52
scalar Network.dyn_peer[925] 	lookupStabilitySig:mean 	0.69516699612141
scalar Network.dyn_peer[925] 	lookupHopsSig:mean 	14.4
scalar Network.dyn_peer[926] 	lookupTimeSig:mean 	1.5
scalar Network.dyn_peer[926] 	lookupStabilitySig:mean 	0.40456676483154
scalar Network.dyn_peer[926] 	lookupHopsSig:mean 	14.5
scalar Network.dyn_peer[927] 	lookupTimeSig:mean 	2.44
scalar Network.dyn_peer[927] 	lookupStabilitySig:mean 	0.92471522204578
scalar Network.dyn_peer[927] 	lookupHopsSig:mean 	23.6
scalar Network.dyn_peer[928] 	lookupTimeSig:mean 	2.0222222222222
scalar Network.dyn_peer[928] 	lookupStabilitySig:mean 	0.90737876585788
scalar Network.dyn_peer[928] 	lookupHopsSig:mean 	19.333333333333
scalar Network.dyn_peer[929] 	lookupTimeSig:mean 	2.7857142857143
scalar Network.dyn_peer[929] 	lookupStabilitySig:mean 	0.95551605056971
scalar Network.dyn_peer[929] 	lookupHopsSig:mean 	27
scalar Network.dyn_peer[930] 	lookupTimeSig:mean 	3.3
scalar Network.dyn_peer[930] 	lookupStabilitySig:mean 	0.80766001157463
scalar Network.dyn_peer[930] 	lookupHopsSig:mean 	32.25
scalar Network.dyn_peer[931] 	lookupTimeSig:mean 	1.6875
scalar Network.dyn_peer[931] 	lookupStabilitySig:mean 	0.84797351679299
scalar Network.dyn_peer[931] 	lookupHopsSig:mean 	16
scalar Network.dyn_peer[932] 	lookupTimeSig:mean 	1.6
scalar Network.dyn_peer[932] 	lookupStabilitySig:mean 	0.7869511898607
scalar Network.dyn_peer[932] 	lookupHopsSig:mean 	15.25
scalar Network.dyn_peer[933] 	lookupTimeSig:mean 	1.8666666666667
scalar Network.dyn_peer[933] 	lookupStabilitySig:mean 	0.92720174551424
scalar Network.dyn_peer[933] 	lookupHopsSig:mean 	17.777777777778
scalar Network.dyn_peer[934] 	lookupTimeSig:mean 	1.7
scalar Network.dyn_peer[934] 	lookupStabilitySig:mean 	0.95276941035991
scalar Network.dyn_peer[934] 	lookupHopsSig:mean 	16.0625
scalar Network.dyn_peer[935] 	lookupTimeSig:mean 	1.75
scalar Network.dyn_peer[935] 	lookupStabilitySig:mean 	0.7182456520386
scalar Network.dyn_peer[935] 	lookupHopsSig:mean 	16.75
scalar Network.dyn_peer[936] 	lookupTimeSig:mean 	1.1615384615385
scalar Network.dyn_peer[936] 	lookupStabilitySig:mean 	0.91506409354938
scalar Network.dyn_peer[936] 	lookupHopsSig:mean 	10.692307692308
scalar Network.dyn_peer[937] 	lookupTimeSig:mean 	2.325
scalar Network.dyn_peer[937] 	lookupStabilitySig:mean 	0.87813333654776
scalar Network.dyn_peer[937] 	lookupHopsSig:mean 	22.5
scalar Network.dyn_peer[938] 	lookupTimeSig:mean 	3.1333333333333
scalar Network.dyn_peer[938] 	lookupStabilitySig:mean 	0.7692388817668
scalar Network.dyn_peer[938] 	lookupHopsSig:mean 	30.666666666667
scalar Network.dyn_peer[939] 	lookupTimeSig:mean 	2.1
scalar Network.dyn_peer[939] 	lookupStabilitySig:mean 	0.75947919239601
scalar Network.dyn_peer[939] 	lookupHopsSig:mean 	20.333333333333
scalar Network.dyn_peer[940] 	lookupTimeSig:mean 	1.5555555555556
scalar Network.dyn_peer[940] 	lookupStabilitySig:mean 	0.86070663528517
scalar Network.dyn_peer[940] 	lookupHopsSig:mean 	14.666666666667
scalar Network.dyn_peer[941] 	lookupTimeSig:mean 	1.85
scalar Network.dyn_peer[941] 	lookupStabilitySig:mean 	0.64659197255969
scalar Network.dyn_peer[941] 	lookupHopsSig:mean 	17.75
scalar Network.dyn_peer[942] 	lookupTimeSig:mean 	0.7
scalar Network.dyn_peer[942] 	lookupStabilitySig:mean 	0.69252558331937
scalar Network.dyn_peer[942] 	lookupHopsSig:mean 	6.25
scalar Network.dyn_peer[943] 	lookupTimeSig:mean 	2.3
scalar Network.dyn_peer[943] 	lookupStabilitySig:mean 	0.95184181290679
scalar Network.dyn_peer[943] 	lookupHopsSig:mean 	22.1
scalar Network.dyn_peer[944] 	lookupTimeSig:mean 	1.9
scalar Network.dyn_peer[944] 	lookupStabilitySig:mean 	0.66141129098833
scalar Network.dyn_peer[944] 	lookupHopsSig:mean 	18.25
scalar Network.dyn_peer[945] 	lookupTimeSig:mean 	1.8714285714286
scalar Network.dyn_peer[945] 	lookupStabilitySig:mean 	0.95417766346197
scalar Network.dyn_peer[945] 	lookupHopsSig:mean 	17.857142857143
scalar Network.dyn_peer[946] 	lookupTimeSig:mean 	1.825
scalar Network.dyn_peer[946] 	lookupStabilitySig:mean 	0.67952783405781
scalar Network.dyn_peer[946] 	lookupHopsSig:mean 	17.5
scalar Network.dyn_peer[947] 	lookupTimeSig:mean 	2.8
scalar Network.dyn_peer[947] 	lookupStabilitySig:mean 	0.6983525082469
scalar Network.dyn_peer[947] 	lookupHopsSig:mean 	27.5
scalar Network.dyn_peer[948] 	lookupTimeSig:mean 	2.1714285714286
scalar Network.dyn_peer[948] 	lookupStabilitySig:mean 	0.95351610186377
scalar Network.dyn_peer[948] 	lookupHopsSig:mean 	20.857142857143
scalar Network.dyn_peer[949] 	lookupTimeSig:mean 	2.375
scalar Network.dyn_peer[949] 	lookupStabilitySig:mean 	0.94025288813282
scalar Network.dyn_peer[949] 	lookupHopsSig:mean 	22.875
scalar Network.dyn_peer[950] 	lookupTimeSig:mean 	1.725
scalar Network.dyn_peer[950] 	lookupStabilitySig:mean 	0.74639747757465
scalar Network.dyn_peer[950] 	lookupHopsSig:mean 	16.5
scalar Network.dyn_peer[951] 	lookupTimeSig:mean 	2.7666666666667
scalar Network.dyn_peer[951] 	lookupStabilitySig:mean 	0.95022562763188
scalar Network.dyn_peer[951] 	lookupHopsSig:mean 	26.833333333333
scalar Network.dyn_peer[952] 	lookupTimeSig:mean 	2.1666666666667
scalar Network.dyn_peer[952] 	lookupStabilitySig:mean 	0.9333234829052
scalar Network.dyn_peer[952] 	lookupHopsSig:mean 	20.833333333333
scalar Network.dyn_peer[953] 	lookupTimeSig:mean 	1.25
scalar Network.dyn_peer[953] 	lookupStabilitySig:mean 	0.83355613402091
scalar Network.dyn_peer[953] 	lookupHopsSig:mean 	11.75
scalar Network.dyn_peer[954] 	lookupTimeSig:mean 	2.2
scalar Network.dyn_peer[954] 	lookupStabilitySig:mean 	0.75602598985036
scalar Network.dyn_peer[954] 	lookupHopsSig:mean 	21.333333333333
scalar Network.dyn_peer[955] 	lookupTimeSig:mean 	1.82
scalar Network.dyn_peer[955] 	lookupStabilitySig:mean 	0.96193065670086
scalar Network.dyn_peer[955] 	lookupHopsSig:mean 	17.3
scalar Network.dyn_peer[956] 	lookupTimeSig:mean 	1.7222222222222
scalar Network.dyn_peer[956] 	lookupStabilitySig:mean 	0.94978383193827
scalar Network.dyn_peer[956] 	lookupHopsSig:mean 	16.333333333333
scalar Network.dyn_peer[957] 	lookupTimeSig:mean 	2.1333333333333
scalar Network.dyn_peer[957] 	lookupStabilitySig:mean 	0.96707034856081
scalar Network.dyn_peer[957] 	lookupHopsSig:mean 	20.416666666667
scalar Network.dyn_peer[958] 	lookupTimeSig:mean 	1.5526315789474
scalar Network.dyn_peer[958] 	lookupStabilitySig:mean 	0.95095253262767
scalar Network.dyn_peer[958] 	lookupHopsSig:mean 	14.578947368421
scalar Network.dyn_peer[959] 	lookupTimeSig:mean 	1.5714285714286
scalar Network.dyn_peer[959] 	lookupStabilitySig:mean 	0.93095251345741
scalar Network.dyn_peer[959] 	lookupHopsSig:mean 	14.857142857143
scalar Network.dyn_peer[960] 	lookupTimeSig:mean 	1.2222222222222
scalar Network.dyn_peer[960] 	lookupStabilitySig:mean 	0.87327184455676
scalar Network.dyn_peer[960] 	lookupHopsSig:mean 	11.333333333333
scalar Network.dyn_peer[961] 	lookupTimeSig:mean 	2.0333333333333
scalar Network.dyn_peer[961] 	lookupStabilitySig:mean 	0.89683976712533
scalar Network.dyn_peer[961] 	lookupHopsSig:mean 	19.444444444444
scalar Network.dyn_peer[962] 	lookupTimeSig:mean 	3.02
scalar Network.dyn_peer[962] 	lookupStabilitySig:mean 	0.94008677750826
scalar Network.dyn_peer[962] 	lookupHopsSig:mean 	29.4
scalar Network.dyn_peer[963] 	lookupTimeSig:mean 	3.58
scalar Network.dyn_peer[963] 	lookupStabilitySig:mean 	0.81661297753453
scalar Network.dyn_peer[963] 	lookupHopsSig:mean 	35
scalar Network.dyn_peer[964] 	lookupTimeSig:mean 	1.3166666666667
scalar Network.dyn_peer[964] 	lookupStabilitySig:mean 	0.84139464360972
scalar Network.dyn_peer[964] 	lookupHopsSig:mean 	12.333333333333
scalar Network.dyn_peer[965] 	lookupTimeSig:mean 	1.7714285714286
scalar Network.dyn_peer[965] 	lookupStabilitySig:mean 	0.85287966053667
scalar Network.dyn_peer[965] 	lookupHopsSig:mean 	16.857142857143
scalar Network.dyn_peer[966] 	lookupTimeSig:mean 	1.4
scalar Network.dyn_peer[966] 	lookupStabilitySig:mean 	0.80032914025443
scalar Network.dyn_peer[966] 	lookupHopsSig:mean 	13.142857142857
scalar Network.dyn_peer[967] 	lookupTimeSig:mean 	1.2666666666667
scalar Network.dyn_peer[967] 	lookupStabilitySig:mean 	0.62927088141441
scalar Network.dyn_peer[967] 	lookupHopsSig:mean 	12
scalar Network.dyn_peer[968] 	lookupTimeSig:mean 	1.925
scalar Network.dyn_peer[968] 	lookupStabilitySig:mean 	0.77499559195712
scalar Network.dyn_peer[968] 	lookupHopsSig:mean 	18.5
scalar Network.dyn_peer[969] 	lookupTimeSig:mean 	1.6375
scalar Network.dyn_peer[969] 	lookupStabilitySig:mean 	0.94256349874195
scalar Network.dyn_peer[969] 	lookupHopsSig:mean 	15.5
scalar Network.dyn_peer[970] 	lookupTimeSig:mean 	1.825
scalar Network.dyn_peer[970] 	lookupStabilitySig:mean 	0.72087084501982
scalar Network.dyn_peer[970] 	lookupHopsSig:mean 	17.5
scalar Network.dyn_peer[971] 	lookupTimeSig:mean 	2.44
scalar Network.dyn_peer[971] 	lookupStabilitySig:mean 	0.73403001111001
scalar Network.dyn_peer[971] 	lookupHopsSig:mean 	23.6
scalar Network.dyn_peer[972] 	lookupTimeSig:mean 	0.96666666666667
scalar Network.dyn_peer[972] 	lookupStabilitySig:mean 	0.57472705344359
scalar Network.dyn_peer[972] 	lookupHopsSig:mean 	9
scalar Network.dyn_peer[973] 	lookupTimeSig:mean 	3.4333333333333
scalar Network.dyn_peer[973] 	lookupStabilitySig:mean 	0.87719579786062
scalar Network.dyn_peer[973] 	lookupHopsSig:mean 	33.666666666667
scalar Network.dyn_peer[974] 	lookupTimeSig:mean 	2.0142857142857
scalar Network.dyn_peer[974] 	lookupStabilitySig:mean 	0.88695375089134
scalar Network.dyn_peer[974] 	lookupHopsSig:mean 	19.285714285714
scalar Network.dyn_peer[975] 	lookupTimeSig:mean 	2.0125
scalar Network.dyn_peer[975] 	lookupStabilitySig:mean 	0.91463082237169
scalar Network.dyn_peer[975] 	lookupHopsSig:mean 	19.25
scalar Network.dyn_peer[976] 	lookupTimeSig:mean 	0.8
scalar Network.dyn_peer[976] 	lookupStabilitySig:mean 	0.56042883793513
scalar Network.dyn_peer[976] 	lookupHopsSig:mean 	7.3333333333333
scalar Network.dyn_peer[977] 	lookupTimeSig:mean 	1.6375
scalar Network.dyn_peer[977] 	lookupStabilitySig:mean 	0.92312716552988
scalar Network.dyn_peer[977] 	lookupHopsSig:mean 	15.5
scalar Network.dyn_peer[978] 	lookupTimeSig:mean 	2.0125
scalar Network.dyn_peer[978] 	lookupStabilitySig:mean 	0.8514804324368
scalar Network.dyn_peer[978] 	lookupHopsSig:mean 	19.25
scalar Network.dyn_peer[979] 	lookupTimeSig:mean 	2.4428571428571
scalar Network.dyn_peer[979] 	lookupStabilitySig:mean 	0.95364036105041
scalar Network.dyn_peer[979] 	lookupHopsSig:mean 	23.571428571429
scalar Network.dyn_peer[980] 	lookupTimeSig:mean 	1.7666666666667
scalar Network.dyn_peer[980] 	lookupStabilitySig:mean 	0.95393793605682
scalar Network.dyn_peer[980] 	lookupHopsSig:mean 	16.777777777778
scalar Network.dyn_peer[981] 	lookupTimeSig:mean 	2.45
scalar Network.dyn_peer[981] 	lookupStabilitySig:mean 	0.70919765159488
scalar Network.dyn_peer[981] 	lookupHopsSig:mean 	24
scalar Network.dyn_peer[982] 	lookupTimeSig:mean 	1.7333333333333
scalar Network.dyn_peer[982] 	lookupStabilitySig:mean 	0.93191306127442
scalar Network.dyn_peer[982] 	lookupHopsSig:mean 	16.444444444444
scalar Network.dyn_peer[983] 	lookupTimeSig:mean 	1.88
scalar Network.dyn_peer[983] 	lookupStabilitySig:mean 	0.961177430721
scalar Network.dyn_peer[983] 	lookupHopsSig:mean 	17.9
scalar Network.dyn_peer[984] 	lookupTimeSig:mean 	1.7916666666667
scalar Network.dyn_peer[984] 	lookupStabilitySig:mean 	0.91164650659387
scalar Network.dyn_peer[984] 	lookupHopsSig:mean 	17
scalar Network.dyn_peer[985] 	lookupTimeSig:mean 	1.8
scalar Network.dyn_peer[985] 	lookupStabilitySig:mean 	0.45913460850716
scalar Network.dyn_peer[985] 	lookupHopsSig:mean 	17.5
scalar Network.dyn_peer[986] 	lookupTimeSig:mean 	1.4666666666667
scalar Network.dyn_peer[986] 	lookupStabilitySig:mean 	0.87003165204078
scalar Network.dyn_peer[986] 	lookupHopsSig:mean 	13.833333333333
scalar Network.dyn_peer[987] 	lookupTimeSig:mean 	1.4533333333333
scalar Network.dyn_peer[987] 	lookupStabilitySig:mean 	0.9512901830487
scalar Network.dyn_peer[987] 	lookupHopsSig:mean 	13.6
scalar Network.dyn_peer[988] 	lookupTimeSig:mean 	3.7333333333333
scalar Network.dyn_peer[988] 	lookupStabilitySig:mean 	0.89588695919762
scalar Network.dyn_peer[988] 	lookupHopsSig:mean 	36.666666666667
scalar Network.dyn_peer[989] 	lookupTimeSig:mean 	0.9
scalar Network.dyn_peer[989] 	lookupStabilitySig:mean 	0.66604103893042
scalar Network.dyn_peer[989] 	lookupHopsSig:mean 	8.25
scalar Network.dyn_peer[990] 	lookupTimeSig:mean 	4.5
scalar Network.dyn_peer[990] 	lookupStabilitySig:mean 	0.55172412842512
scalar Network.dyn_peer[990] 	lookupHopsSig:mean 	44.5
scalar Network.dyn_peer[991] 	lookupTimeSig:mean 	1.5
scalar Network.dyn_peer[991] 	lookupStabilitySig:mean 	0.72186400648206
scalar Network.dyn_peer[991] 	lookupHopsSig:mean 	14.25
scalar Network.dyn_peer[992] 	lookupTimeSig:mean 	2.0857142857143
scalar Network.dyn_peer[992] 	lookupStabilitySig:mean 	0.89567427589957
scalar Network.dyn_peer[992] 	lookupHopsSig:mean 	20
scalar Network.dyn_peer[993] 	lookupTimeSig:mean 	1.4666666666667
scalar Network.dyn_peer[993] 	lookupStabilitySig:mean 	0.61184606701136
scalar Network.dyn_peer[993] 	lookupHopsSig:mean 	14
scalar Network.dyn_peer[994] 	lookupTimeSig:mean 	1.7714285714286
scalar Network.dyn_peer[994] 	lookupStabilitySig:mean 	0.83163934839623
scalar Network.dyn_peer[994] 	lookupHopsSig:mean 	16.857142857143
scalar Network.dyn_peer[995] 	lookupTimeSig:mean 	3.0625
scalar Network.dyn_peer[995] 	lookupStabilitySig:mean 	0.95143762708176
scalar Network.dyn_peer[995] 	lookupHopsSig:mean 	29.75
scalar Network.dyn_peer[996] 	lookupTimeSig:mean 	1.8444444444444
scalar Network.dyn_peer[996] 	lookupStabilitySig:mean 	0.90851532305694
scalar Network.dyn_peer[996] 	lookupHopsSig:mean 	17.555555555556
scalar Network.dyn_peer[997] 	lookupTimeSig:mean 	1.93
scalar Network.dyn_peer[997] 	lookupStabilitySig:mean 	0.95720604080707
scalar Network.dyn_peer[997] 	lookupHopsSig:mean 	18.4
scalar Network.dyn_peer[998] 	lookupTimeSig:mean 	1.5909090909091
scalar Network.dyn_peer[998] 	lookupStabilitySig:mean 	0.92526789335534
scalar Network.dyn_peer[998] 	lookupHopsSig:mean 	15
scalar Network.dyn_peer[999] 	lookupTimeSig:mean 	1.95
scalar Network.dyn_peer[999] 	lookupStabilitySig:mean 	0.61936936527491
scalar Network.dyn_peer[999] 	lookupHopsSig:mean 	19
scalar Network.churner 	inGoingSizeSig:mean 	498.84215784216
