version 2
run Stability2-275-20130526-00:53:40-26640
attr configname Stability2
attr datetime 20130526-00:53:40
attr experiment Stability2
attr inifile omnetpp.ini
attr iterationvars $0=500
attr iterationvars2 "$0=500, $repetition=5"
attr measurement $0=500
attr network Network
attr processid 26640
attr repetition 5
attr replication #5
attr resultdir results
attr runnumber 275
attr seedset 275

scalar Network.dyn_peer[0] 	lookupTimeSig:mean 	1.1176470588235
scalar Network.dyn_peer[0] 	lookupStabilitySig:mean 	0.84254799405222
scalar Network.dyn_peer[0] 	lookupHopsSig:mean 	10.235294117647
scalar Network.dyn_peer[1] 	lookupTimeSig:mean 	1.5666666666667
scalar Network.dyn_peer[1] 	lookupStabilitySig:mean 	0.32339900235335
scalar Network.dyn_peer[1] 	lookupHopsSig:mean 	15
scalar Network.dyn_peer[2] 	lookupTimeSig:mean 	1.39
scalar Network.dyn_peer[2] 	lookupStabilitySig:mean 	0.90161564368755
scalar Network.dyn_peer[2] 	lookupHopsSig:mean 	13
scalar Network.dyn_peer[3] 	lookupTimeSig:mean 	1.5
scalar Network.dyn_peer[3] 	lookupStabilitySig:mean 	0.62124440260231
scalar Network.dyn_peer[3] 	lookupHopsSig:mean 	14.166666666667
scalar Network.dyn_peer[4] 	lookupTimeSig:mean 	2.2
scalar Network.dyn_peer[4] 	lookupStabilitySig:mean 	0.7712842648228
scalar Network.dyn_peer[4] 	lookupHopsSig:mean 	21.333333333333
scalar Network.dyn_peer[5] 	lookupTimeSig:mean 	1.6
scalar Network.dyn_peer[5] 	lookupStabilitySig:mean 	-0.26249998807907
scalar Network.dyn_peer[5] 	lookupHopsSig:mean 	15.5
scalar Network.dyn_peer[6] 	lookupTimeSig:mean 	1.05
scalar Network.dyn_peer[6] 	lookupStabilitySig:mean 	0.37329544126987
scalar Network.dyn_peer[6] 	lookupHopsSig:mean 	9.75
scalar Network.dyn_peer[7] 	lookupTimeSig:mean 	0.475
scalar Network.dyn_peer[7] 	lookupStabilitySig:mean 	0.37803030386567
scalar Network.dyn_peer[7] 	lookupHopsSig:mean 	4
scalar Network.dyn_peer[8] 	lookupTimeSig:mean 	1.06
scalar Network.dyn_peer[8] 	lookupStabilitySig:mean 	0.4138680588454
scalar Network.dyn_peer[8] 	lookupHopsSig:mean 	9.8
scalar Network.dyn_peer[9] 	lookupTimeSig:mean 	1.075
scalar Network.dyn_peer[9] 	lookupStabilitySig:mean 	0.26319967396557
scalar Network.dyn_peer[9] 	lookupHopsSig:mean 	10
scalar Network.dyn_peer[10] 	lookupTimeSig:mean 	2.4
scalar Network.dyn_peer[10] 	lookupStabilitySig:mean 	0.14765560626984
scalar Network.dyn_peer[10] 	lookupHopsSig:mean 	23.333333333333
scalar Network.dyn_peer[11] 	lookupTimeSig:mean 	1.85
scalar Network.dyn_peer[11] 	lookupStabilitySig:mean 	0.65011771395802
scalar Network.dyn_peer[11] 	lookupHopsSig:mean 	17.666666666667
scalar Network.dyn_peer[12] 	lookupTimeSig:mean 	1.475
scalar Network.dyn_peer[12] 	lookupStabilitySig:mean 	0.51535669574514
scalar Network.dyn_peer[12] 	lookupHopsSig:mean 	14
scalar Network.dyn_peer[13] 	lookupTimeSig:mean 	3.8
scalar Network.dyn_peer[13] 	lookupStabilitySig:mean 	0.46654134988785
scalar Network.dyn_peer[13] 	lookupHopsSig:mean 	37.5
scalar Network.dyn_peer[14] 	lookupTimeSig:mean 	1.38
scalar Network.dyn_peer[14] 	lookupStabilitySig:mean 	0.60666352063417
scalar Network.dyn_peer[14] 	lookupHopsSig:mean 	13
scalar Network.dyn_peer[15] 	lookupTimeSig:mean 	1.225
scalar Network.dyn_peer[15] 	lookupStabilitySig:mean 	0.26420136541128
scalar Network.dyn_peer[15] 	lookupHopsSig:mean 	11.5
scalar Network.dyn_peer[16] 	lookupTimeSig:mean 	1.6
scalar Network.dyn_peer[16] 	lookupStabilitySig:mean 	0.6440887324512
scalar Network.dyn_peer[16] 	lookupHopsSig:mean 	15.2
scalar Network.dyn_peer[17] 	lookupTimeSig:mean 	1.7
scalar Network.dyn_peer[17] 	lookupStabilitySig:mean 	0.74219533614814
scalar Network.dyn_peer[17] 	lookupHopsSig:mean 	16.25
scalar Network.dyn_peer[18] 	lookupTimeSig:mean 	1.5
scalar Network.dyn_peer[18] 	lookupStabilitySig:mean 	0.44516721591353
scalar Network.dyn_peer[18] 	lookupHopsSig:mean 	14.2
scalar Network.dyn_peer[19] 	lookupTimeSig:mean 	1.0857142857143
scalar Network.dyn_peer[19] 	lookupStabilitySig:mean 	0.56873558035919
scalar Network.dyn_peer[19] 	lookupHopsSig:mean 	10
scalar Network.dyn_peer[20] 	lookupTimeSig:mean 	1.4142857142857
scalar Network.dyn_peer[20] 	lookupStabilitySig:mean 	0.59642851698611
scalar Network.dyn_peer[20] 	lookupHopsSig:mean 	13.285714285714
scalar Network.dyn_peer[21] 	lookupTimeSig:mean 	0.97777777777778
scalar Network.dyn_peer[21] 	lookupStabilitySig:mean 	0.72955488868886
scalar Network.dyn_peer[21] 	lookupHopsSig:mean 	8.8888888888889
scalar Network.dyn_peer[22] 	lookupTimeSig:mean 	1.8666666666667
scalar Network.dyn_peer[22] 	lookupStabilitySig:mean 	0.39303409556548
scalar Network.dyn_peer[22] 	lookupHopsSig:mean 	18
scalar Network.dyn_peer[23] 	lookupTimeSig:mean 	1.12
scalar Network.dyn_peer[23] 	lookupStabilitySig:mean 	0.44055024310946
scalar Network.dyn_peer[23] 	lookupHopsSig:mean 	10.4
scalar Network.dyn_peer[24] 	lookupTimeSig:mean 	1.2833333333333
scalar Network.dyn_peer[24] 	lookupStabilitySig:mean 	0.59876544773579
scalar Network.dyn_peer[24] 	lookupHopsSig:mean 	12
scalar Network.dyn_peer[25] 	lookupTimeSig:mean 	0.675
scalar Network.dyn_peer[25] 	lookupStabilitySig:mean 	0.23737602401525
scalar Network.dyn_peer[25] 	lookupHopsSig:mean 	6
scalar Network.dyn_peer[26] 	lookupTimeSig:mean 	1.44
scalar Network.dyn_peer[26] 	lookupStabilitySig:mean 	0.77657971382141
scalar Network.dyn_peer[26] 	lookupHopsSig:mean 	13.6
scalar Network.dyn_peer[27] 	lookupTimeSig:mean 	2.1
scalar Network.dyn_peer[27] 	lookupStabilitySig:mean 	0.59141413867474
scalar Network.dyn_peer[27] 	lookupHopsSig:mean 	20.333333333333
scalar Network.dyn_peer[28] 	lookupTimeSig:mean 	0.91
scalar Network.dyn_peer[28] 	lookupStabilitySig:mean 	0.69328862018883
scalar Network.dyn_peer[28] 	lookupHopsSig:mean 	8.2
scalar Network.dyn_peer[29] 	lookupTimeSig:mean 	1.3
scalar Network.dyn_peer[29] 	lookupStabilitySig:mean 	0.34122636914253
scalar Network.dyn_peer[29] 	lookupHopsSig:mean 	12.333333333333
scalar Network.dyn_peer[30] 	lookupTimeSig:mean 	1.15
scalar Network.dyn_peer[30] 	lookupStabilitySig:mean 	0.43808379769325
scalar Network.dyn_peer[30] 	lookupHopsSig:mean 	10.75
scalar Network.dyn_peer[31] 	lookupTimeSig:mean 	1.4857142857143
scalar Network.dyn_peer[31] 	lookupStabilitySig:mean 	0.64715657449727
scalar Network.dyn_peer[31] 	lookupHopsSig:mean 	14
scalar Network.dyn_peer[32] 	lookupTimeSig:mean 	1.3
scalar Network.dyn_peer[32] 	lookupStabilitySig:mean 	0.55109819024801
scalar Network.dyn_peer[32] 	lookupHopsSig:mean 	12.2
scalar Network.dyn_peer[33] 	lookupTimeSig:mean 	0.925
scalar Network.dyn_peer[33] 	lookupStabilitySig:mean 	0.80546635889914
scalar Network.dyn_peer[33] 	lookupHopsSig:mean 	8.375
scalar Network.dyn_peer[34] 	lookupTimeSig:mean 	1.15
scalar Network.dyn_peer[34] 	lookupStabilitySig:mean 	0.37117652408779
scalar Network.dyn_peer[34] 	lookupHopsSig:mean 	10.75
scalar Network.dyn_peer[35] 	lookupTimeSig:mean 	1
scalar Network.dyn_peer[35] 	lookupStabilitySig:mean 	0.65887523500714
scalar Network.dyn_peer[35] 	lookupHopsSig:mean 	9.125
scalar Network.dyn_peer[36] 	lookupTimeSig:mean 	1.2
scalar Network.dyn_peer[36] 	lookupStabilitySig:mean 	0.27208782359958
scalar Network.dyn_peer[36] 	lookupHopsSig:mean 	11.25
scalar Network.dyn_peer[37] 	lookupTimeSig:mean 	1.1
scalar Network.dyn_peer[37] 	lookupStabilitySig:mean 	0.68766025034711
scalar Network.dyn_peer[37] 	lookupHopsSig:mean 	10.25
scalar Network.dyn_peer[38] 	lookupTimeSig:mean 	1.525
scalar Network.dyn_peer[38] 	lookupStabilitySig:mean 	0.40002831444144
scalar Network.dyn_peer[38] 	lookupHopsSig:mean 	14.5
scalar Network.dyn_peer[39] 	lookupTimeSig:mean 	1.72
scalar Network.dyn_peer[39] 	lookupStabilitySig:mean 	0.86949273892678
scalar Network.dyn_peer[39] 	lookupHopsSig:mean 	16.4
scalar Network.dyn_peer[40] 	lookupTimeSig:mean 	2.2
scalar Network.dyn_peer[40] 	lookupStabilitySig:mean 	0.91958423797041
scalar Network.dyn_peer[40] 	lookupHopsSig:mean 	21.2
scalar Network.dyn_peer[41] 	lookupTimeSig:mean 	1.1
scalar Network.dyn_peer[41] 	lookupStabilitySig:mean 	0.45010988786817
scalar Network.dyn_peer[41] 	lookupHopsSig:mean 	10.25
scalar Network.dyn_peer[42] 	lookupTimeSig:mean 	1.3333333333333
scalar Network.dyn_peer[42] 	lookupStabilitySig:mean 	0.21212119360765
scalar Network.dyn_peer[42] 	lookupHopsSig:mean 	12.666666666667
scalar Network.dyn_peer[43] 	lookupTimeSig:mean 	1.12
scalar Network.dyn_peer[43] 	lookupStabilitySig:mean 	0.688390782848
scalar Network.dyn_peer[43] 	lookupHopsSig:mean 	10.4
scalar Network.dyn_peer[44] 	lookupTimeSig:mean 	1.5875
scalar Network.dyn_peer[44] 	lookupStabilitySig:mean 	0.79908441612497
scalar Network.dyn_peer[44] 	lookupHopsSig:mean 	15
scalar Network.dyn_peer[45] 	lookupTimeSig:mean 	1.46
scalar Network.dyn_peer[45] 	lookupStabilitySig:mean 	0.38774690926075
scalar Network.dyn_peer[45] 	lookupHopsSig:mean 	13.8
scalar Network.dyn_peer[46] 	lookupTimeSig:mean 	1.825
scalar Network.dyn_peer[46] 	lookupStabilitySig:mean 	0.34697283431888
scalar Network.dyn_peer[46] 	lookupHopsSig:mean 	17.5
scalar Network.dyn_peer[47] 	lookupTimeSig:mean 	1.21
scalar Network.dyn_peer[47] 	lookupStabilitySig:mean 	0.70317128077149
scalar Network.dyn_peer[47] 	lookupHopsSig:mean 	11.2
scalar Network.dyn_peer[48] 	lookupTimeSig:mean 	1.2714285714286
scalar Network.dyn_peer[48] 	lookupStabilitySig:mean 	0.67768889718822
scalar Network.dyn_peer[48] 	lookupHopsSig:mean 	11.857142857143
scalar Network.dyn_peer[49] 	lookupTimeSig:mean 	1.3333333333333
scalar Network.dyn_peer[49] 	lookupStabilitySig:mean 	0.31831500430902
scalar Network.dyn_peer[49] 	lookupHopsSig:mean 	12.666666666667
scalar Network.dyn_peer[50] 	lookupTimeSig:mean 	2.375
scalar Network.dyn_peer[50] 	lookupStabilitySig:mean 	0.69879151694477
scalar Network.dyn_peer[50] 	lookupHopsSig:mean 	23
scalar Network.dyn_peer[51] 	lookupTimeSig:mean 	0.93333333333333
scalar Network.dyn_peer[51] 	lookupStabilitySig:mean 	0.065284182627996
scalar Network.dyn_peer[51] 	lookupHopsSig:mean 	8.6666666666667
scalar Network.dyn_peer[52] 	lookupTimeSig:mean 	1.1125
scalar Network.dyn_peer[52] 	lookupStabilitySig:mean 	0.8407481223112
scalar Network.dyn_peer[52] 	lookupHopsSig:mean 	10.25
scalar Network.dyn_peer[53] 	lookupTimeSig:mean 	1.3125
scalar Network.dyn_peer[53] 	lookupStabilitySig:mean 	0.93748473661253
scalar Network.dyn_peer[53] 	lookupHopsSig:mean 	12.1875
scalar Network.dyn_peer[54] 	lookupTimeSig:mean 	1.5777777777778
scalar Network.dyn_peer[54] 	lookupStabilitySig:mean 	0.80089404496054
scalar Network.dyn_peer[54] 	lookupHopsSig:mean 	14.888888888889
scalar Network.dyn_peer[55] 	lookupTimeSig:mean 	1.76
scalar Network.dyn_peer[55] 	lookupStabilitySig:mean 	0.37669786959887
scalar Network.dyn_peer[55] 	lookupHopsSig:mean 	16.8
scalar Network.dyn_peer[56] 	lookupTimeSig:mean 	1.36
scalar Network.dyn_peer[56] 	lookupStabilitySig:mean 	0.58703071530908
scalar Network.dyn_peer[56] 	lookupHopsSig:mean 	12.8
scalar Network.dyn_peer[57] 	lookupTimeSig:mean 	1.2833333333333
scalar Network.dyn_peer[57] 	lookupStabilitySig:mean 	0.64716598841672
scalar Network.dyn_peer[57] 	lookupHopsSig:mean 	12
scalar Network.dyn_peer[58] 	lookupTimeSig:mean 	1.98
scalar Network.dyn_peer[58] 	lookupStabilitySig:mean 	0.89708724897355
scalar Network.dyn_peer[58] 	lookupHopsSig:mean 	19
scalar Network.dyn_peer[59] 	lookupTimeSig:mean 	1.2666666666667
scalar Network.dyn_peer[59] 	lookupStabilitySig:mean 	0.25010891755422
scalar Network.dyn_peer[59] 	lookupHopsSig:mean 	12
scalar Network.dyn_peer[60] 	lookupTimeSig:mean 	1.325
scalar Network.dyn_peer[60] 	lookupStabilitySig:mean 	0.64151225192472
scalar Network.dyn_peer[60] 	lookupHopsSig:mean 	12.375
scalar Network.dyn_peer[61] 	lookupTimeSig:mean 	0.875
scalar Network.dyn_peer[61] 	lookupStabilitySig:mean 	0.34455126523972
scalar Network.dyn_peer[61] 	lookupHopsSig:mean 	8
scalar Network.dyn_peer[62] 	lookupTimeSig:mean 	1.4555555555556
scalar Network.dyn_peer[62] 	lookupStabilitySig:mean 	0.85695709329512
scalar Network.dyn_peer[62] 	lookupHopsSig:mean 	13.666666666667
scalar Network.dyn_peer[63] 	lookupTimeSig:mean 	1.4272727272727
scalar Network.dyn_peer[63] 	lookupStabilitySig:mean 	0.77325962585482
scalar Network.dyn_peer[63] 	lookupHopsSig:mean 	13.363636363636
scalar Network.dyn_peer[64] 	lookupTimeSig:mean 	1.525
scalar Network.dyn_peer[64] 	lookupStabilitySig:mean 	0.7081118284259
scalar Network.dyn_peer[64] 	lookupHopsSig:mean 	14.5
scalar Network.dyn_peer[65] 	lookupTimeSig:mean 	1.14
scalar Network.dyn_peer[65] 	lookupStabilitySig:mean 	0.57708078324795
scalar Network.dyn_peer[65] 	lookupHopsSig:mean 	10.6
scalar Network.dyn_peer[66] 	lookupTimeSig:mean 	1.1666666666667
scalar Network.dyn_peer[66] 	lookupStabilitySig:mean 	0.54825054792066
scalar Network.dyn_peer[66] 	lookupHopsSig:mean 	10.833333333333
scalar Network.dyn_peer[67] 	lookupTimeSig:mean 	1.44
scalar Network.dyn_peer[67] 	lookupStabilitySig:mean 	0.48409886658192
scalar Network.dyn_peer[67] 	lookupHopsSig:mean 	13.6
scalar Network.dyn_peer[68] 	lookupTimeSig:mean 	0.93333333333333
scalar Network.dyn_peer[68] 	lookupStabilitySig:mean 	0.20505050818125
scalar Network.dyn_peer[68] 	lookupHopsSig:mean 	8.6666666666667
scalar Network.dyn_peer[69] 	lookupTimeSig:mean 	1.1666666666667
scalar Network.dyn_peer[69] 	lookupStabilitySig:mean 	0.76300826195317
scalar Network.dyn_peer[69] 	lookupHopsSig:mean 	10.75
scalar Network.dyn_peer[70] 	lookupTimeSig:mean 	1.75
scalar Network.dyn_peer[70] 	lookupStabilitySig:mean 	0.54063490126282
scalar Network.dyn_peer[70] 	lookupHopsSig:mean 	16.75
scalar Network.dyn_peer[71] 	lookupTimeSig:mean 	1
scalar Network.dyn_peer[71] 	lookupStabilitySig:mean 	0.45446724444628
scalar Network.dyn_peer[71] 	lookupHopsSig:mean 	9.25
scalar Network.dyn_peer[72] 	lookupTimeSig:mean 	1.3
scalar Network.dyn_peer[72] 	lookupStabilitySig:mean 	0.69277967007032
scalar Network.dyn_peer[72] 	lookupHopsSig:mean 	12.142857142857
scalar Network.dyn_peer[73] 	lookupTimeSig:mean 	1.7
scalar Network.dyn_peer[73] 	lookupStabilitySig:mean 	0.50890280622989
scalar Network.dyn_peer[73] 	lookupHopsSig:mean 	16.2
scalar Network.dyn_peer[74] 	lookupTimeSig:mean 	1.475
scalar Network.dyn_peer[74] 	lookupStabilitySig:mean 	0.88147418224253
scalar Network.dyn_peer[74] 	lookupHopsSig:mean 	13.875
scalar Network.dyn_peer[75] 	lookupTimeSig:mean 	1.475
scalar Network.dyn_peer[75] 	lookupStabilitySig:mean 	0.36722625792027
scalar Network.dyn_peer[75] 	lookupHopsSig:mean 	14
scalar Network.dyn_peer[76] 	lookupTimeSig:mean 	1.0125
scalar Network.dyn_peer[76] 	lookupStabilitySig:mean 	0.72533907953766
scalar Network.dyn_peer[76] 	lookupHopsSig:mean 	9.25
scalar Network.dyn_peer[77] 	lookupTimeSig:mean 	1.4
scalar Network.dyn_peer[77] 	lookupStabilitySig:mean 	0.72419564239681
scalar Network.dyn_peer[77] 	lookupHopsSig:mean 	13.125
scalar Network.dyn_peer[78] 	lookupTimeSig:mean 	1.4
scalar Network.dyn_peer[78] 	lookupStabilitySig:mean 	0.72905489876866
scalar Network.dyn_peer[78] 	lookupHopsSig:mean 	13.2
scalar Network.dyn_peer[79] 	lookupTimeSig:mean 	0.68
scalar Network.dyn_peer[79] 	lookupStabilitySig:mean 	0.45002294629812
scalar Network.dyn_peer[79] 	lookupHopsSig:mean 	6
scalar Network.dyn_peer[80] 	lookupTimeSig:mean 	1.28
scalar Network.dyn_peer[80] 	lookupStabilitySig:mean 	0.40803417414427
scalar Network.dyn_peer[80] 	lookupHopsSig:mean 	12
scalar Network.dyn_peer[81] 	lookupTimeSig:mean 	1.875
scalar Network.dyn_peer[81] 	lookupStabilitySig:mean 	0.56942716985941
scalar Network.dyn_peer[81] 	lookupHopsSig:mean 	18
scalar Network.dyn_peer[82] 	lookupTimeSig:mean 	1.4
scalar Network.dyn_peer[82] 	lookupStabilitySig:mean 	0.67505829781294
scalar Network.dyn_peer[82] 	lookupHopsSig:mean 	13.2
scalar Network.dyn_peer[83] 	lookupTimeSig:mean 	2.175
scalar Network.dyn_peer[83] 	lookupStabilitySig:mean 	0.54921439569443
scalar Network.dyn_peer[83] 	lookupHopsSig:mean 	21
scalar Network.dyn_peer[84] 	lookupTimeSig:mean 	1.1888888888889
scalar Network.dyn_peer[84] 	lookupStabilitySig:mean 	0.70855506623371
scalar Network.dyn_peer[84] 	lookupHopsSig:mean 	11
scalar Network.dyn_peer[85] 	lookupTimeSig:mean 	2.2
scalar Network.dyn_peer[85] 	lookupStabilitySig:mean 	0.15934572120508
scalar Network.dyn_peer[85] 	lookupHopsSig:mean 	21.333333333333
scalar Network.dyn_peer[86] 	lookupTimeSig:mean 	1.15
scalar Network.dyn_peer[86] 	lookupStabilitySig:mean 	0.77033592993394
scalar Network.dyn_peer[86] 	lookupHopsSig:mean 	10.625
scalar Network.dyn_peer[87] 	lookupTimeSig:mean 	1.06
scalar Network.dyn_peer[87] 	lookupStabilitySig:mean 	0.42861738838255
scalar Network.dyn_peer[87] 	lookupHopsSig:mean 	9.8
scalar Network.dyn_peer[88] 	lookupTimeSig:mean 	1.5818181818182
scalar Network.dyn_peer[88] 	lookupStabilitySig:mean 	0.74064723342996
scalar Network.dyn_peer[88] 	lookupHopsSig:mean 	14.909090909091
scalar Network.dyn_peer[89] 	lookupTimeSig:mean 	1.35
scalar Network.dyn_peer[89] 	lookupStabilitySig:mean 	-0.051851838827133
scalar Network.dyn_peer[89] 	lookupHopsSig:mean 	13
scalar Network.dyn_peer[90] 	lookupTimeSig:mean 	1.2666666666667
scalar Network.dyn_peer[90] 	lookupStabilitySig:mean 	0.51904761791229
scalar Network.dyn_peer[90] 	lookupHopsSig:mean 	12
scalar Network.dyn_peer[91] 	lookupTimeSig:mean 	1.85
scalar Network.dyn_peer[91] 	lookupStabilitySig:mean 	0.63366505689919
scalar Network.dyn_peer[91] 	lookupHopsSig:mean 	17.75
scalar Network.dyn_peer[92] 	lookupTimeSig:mean 	1.2142857142857
scalar Network.dyn_peer[92] 	lookupStabilitySig:mean 	0.74036939282502
scalar Network.dyn_peer[92] 	lookupHopsSig:mean 	11.285714285714
scalar Network.dyn_peer[93] 	lookupTimeSig:mean 	1.35
scalar Network.dyn_peer[93] 	lookupStabilitySig:mean 	0.28928568959236
scalar Network.dyn_peer[93] 	lookupHopsSig:mean 	13
scalar Network.dyn_peer[94] 	lookupTimeSig:mean 	2.5
scalar Network.dyn_peer[94] 	lookupStabilitySig:mean 	0.38021046668291
scalar Network.dyn_peer[94] 	lookupHopsSig:mean 	24.25
scalar Network.dyn_peer[95] 	lookupTimeSig:mean 	1.0285714285714
scalar Network.dyn_peer[95] 	lookupStabilitySig:mean 	0.75619960489816
scalar Network.dyn_peer[95] 	lookupHopsSig:mean 	9.3571428571429
scalar Network.dyn_peer[96] 	lookupTimeSig:mean 	1.6666666666667
scalar Network.dyn_peer[96] 	lookupStabilitySig:mean 	0.87029360048473
scalar Network.dyn_peer[96] 	lookupHopsSig:mean 	15.833333333333
scalar Network.dyn_peer[97] 	lookupTimeSig:mean 	1.18
scalar Network.dyn_peer[97] 	lookupStabilitySig:mean 	0.53195352107286
scalar Network.dyn_peer[97] 	lookupHopsSig:mean 	11
scalar Network.dyn_peer[98] 	lookupTimeSig:mean 	2.95
scalar Network.dyn_peer[98] 	lookupStabilitySig:mean 	0.6372092962265
scalar Network.dyn_peer[98] 	lookupHopsSig:mean 	29
scalar Network.dyn_peer[99] 	lookupTimeSig:mean 	2.06
scalar Network.dyn_peer[99] 	lookupStabilitySig:mean 	0.59845383018255
scalar Network.dyn_peer[99] 	lookupHopsSig:mean 	19.8
scalar Network.dyn_peer[100] 	lookupTimeSig:mean 	1.5
scalar Network.dyn_peer[100] 	lookupStabilitySig:mean 	0.48509603887796
scalar Network.dyn_peer[100] 	lookupHopsSig:mean 	14.2
scalar Network.dyn_peer[101] 	lookupTimeSig:mean 	2.05
scalar Network.dyn_peer[101] 	lookupStabilitySig:mean 	0.17077174037695
scalar Network.dyn_peer[101] 	lookupHopsSig:mean 	20
scalar Network.dyn_peer[102] 	lookupTimeSig:mean 	1.0857142857143
scalar Network.dyn_peer[102] 	lookupStabilitySig:mean 	0.69197814831776
scalar Network.dyn_peer[102] 	lookupHopsSig:mean 	10
scalar Network.dyn_peer[103] 	lookupTimeSig:mean 	1.5666666666667
scalar Network.dyn_peer[103] 	lookupStabilitySig:mean 	0.51505214969317
scalar Network.dyn_peer[103] 	lookupHopsSig:mean 	15
scalar Network.dyn_peer[104] 	lookupTimeSig:mean 	1.3
scalar Network.dyn_peer[104] 	lookupStabilitySig:mean 	0.46398348609606
scalar Network.dyn_peer[104] 	lookupHopsSig:mean 	12.333333333333
scalar Network.dyn_peer[105] 	lookupTimeSig:mean 	0.85
scalar Network.dyn_peer[105] 	lookupStabilitySig:mean 	0.55391673929989
scalar Network.dyn_peer[105] 	lookupHopsSig:mean 	7.75
scalar Network.dyn_peer[106] 	lookupTimeSig:mean 	1.2875
scalar Network.dyn_peer[106] 	lookupStabilitySig:mean 	0.85614192206413
scalar Network.dyn_peer[106] 	lookupHopsSig:mean 	12
scalar Network.dyn_peer[107] 	lookupTimeSig:mean 	1.76
scalar Network.dyn_peer[107] 	lookupStabilitySig:mean 	0.52901176922023
scalar Network.dyn_peer[107] 	lookupHopsSig:mean 	16.8
scalar Network.dyn_peer[108] 	lookupTimeSig:mean 	1.8
scalar Network.dyn_peer[108] 	lookupStabilitySig:mean 	0.71882881327636
scalar Network.dyn_peer[108] 	lookupHopsSig:mean 	17.111111111111
scalar Network.dyn_peer[109] 	lookupTimeSig:mean 	0.7
scalar Network.dyn_peer[109] 	lookupStabilitySig:mean 	0.37530958466232
scalar Network.dyn_peer[109] 	lookupHopsSig:mean 	6.25
scalar Network.dyn_peer[110] 	lookupTimeSig:mean 	1.6
scalar Network.dyn_peer[110] 	lookupStabilitySig:mean 	0.878654351591
scalar Network.dyn_peer[110] 	lookupHopsSig:mean 	15.142857142857
scalar Network.dyn_peer[111] 	lookupTimeSig:mean 	1.2
scalar Network.dyn_peer[111] 	lookupStabilitySig:mean 	0.1976542721192
scalar Network.dyn_peer[111] 	lookupHopsSig:mean 	11.333333333333
scalar Network.dyn_peer[112] 	lookupTimeSig:mean 	0.65
scalar Network.dyn_peer[112] 	lookupStabilitySig:mean 	0.51521738618612
scalar Network.dyn_peer[112] 	lookupHopsSig:mean 	5.75
scalar Network.dyn_peer[113] 	lookupTimeSig:mean 	1.3
scalar Network.dyn_peer[113] 	lookupStabilitySig:mean 	-0.35606065392494
scalar Network.dyn_peer[113] 	lookupHopsSig:mean 	12.5
scalar Network.dyn_peer[114] 	lookupTimeSig:mean 	2.6
scalar Network.dyn_peer[114] 	lookupStabilitySig:mean 	0.27747675776482
scalar Network.dyn_peer[114] 	lookupHopsSig:mean 	25.333333333333
scalar Network.dyn_peer[115] 	lookupTimeSig:mean 	1.4125
scalar Network.dyn_peer[115] 	lookupStabilitySig:mean 	0.85217278823256
scalar Network.dyn_peer[115] 	lookupHopsSig:mean 	13.25
scalar Network.dyn_peer[116] 	lookupTimeSig:mean 	1.7
scalar Network.dyn_peer[116] 	lookupStabilitySig:mean 	0.8502099821344
scalar Network.dyn_peer[116] 	lookupHopsSig:mean 	16.25
scalar Network.dyn_peer[117] 	lookupTimeSig:mean 	1.475
scalar Network.dyn_peer[117] 	lookupStabilitySig:mean 	0.71135560749099
scalar Network.dyn_peer[117] 	lookupHopsSig:mean 	14
scalar Network.dyn_peer[118] 	lookupTimeSig:mean 	1.7
scalar Network.dyn_peer[118] 	lookupStabilitySig:mean 	0.35774411261082
scalar Network.dyn_peer[118] 	lookupHopsSig:mean 	16.5
scalar Network.dyn_peer[119] 	lookupTimeSig:mean 	1.4857142857143
scalar Network.dyn_peer[119] 	lookupStabilitySig:mean 	0.83565780547048
scalar Network.dyn_peer[119] 	lookupHopsSig:mean 	14
scalar Network.dyn_peer[120] 	lookupTimeSig:mean 	1.7285714285714
scalar Network.dyn_peer[120] 	lookupStabilitySig:mean 	0.92331871749567
scalar Network.dyn_peer[120] 	lookupHopsSig:mean 	16.428571428571
scalar Network.dyn_peer[121] 	lookupTimeSig:mean 	1.5571428571429
scalar Network.dyn_peer[121] 	lookupStabilitySig:mean 	0.84115567883211
scalar Network.dyn_peer[121] 	lookupHopsSig:mean 	14.714285714286
scalar Network.dyn_peer[122] 	lookupTimeSig:mean 	1.475
scalar Network.dyn_peer[122] 	lookupStabilitySig:mean 	0.51935844123363
scalar Network.dyn_peer[122] 	lookupHopsSig:mean 	14
scalar Network.dyn_peer[123] 	lookupTimeSig:mean 	0.75
scalar Network.dyn_peer[123] 	lookupStabilitySig:mean 	0.53452234528959
scalar Network.dyn_peer[123] 	lookupHopsSig:mean 	6.6666666666667
scalar Network.dyn_peer[124] 	lookupTimeSig:mean 	0.95
scalar Network.dyn_peer[124] 	lookupStabilitySig:mean 	0.24540598038584
scalar Network.dyn_peer[124] 	lookupHopsSig:mean 	8.75
scalar Network.dyn_peer[125] 	lookupTimeSig:mean 	1.0166666666667
scalar Network.dyn_peer[125] 	lookupStabilitySig:mean 	0.78337908675894
scalar Network.dyn_peer[125] 	lookupHopsSig:mean 	9.25
scalar Network.dyn_peer[126] 	lookupTimeSig:mean 	1.1
scalar Network.dyn_peer[126] 	lookupStabilitySig:mean 	0.87564056692645
scalar Network.dyn_peer[126] 	lookupHopsSig:mean 	10.125
scalar Network.dyn_peer[127] 	lookupTimeSig:mean 	1.55
scalar Network.dyn_peer[127] 	lookupStabilitySig:mean 	0.49063548073173
scalar Network.dyn_peer[127] 	lookupHopsSig:mean 	14.75
scalar Network.dyn_peer[128] 	lookupTimeSig:mean 	1.74
scalar Network.dyn_peer[128] 	lookupStabilitySig:mean 	0.91848651105538
scalar Network.dyn_peer[128] 	lookupHopsSig:mean 	16.5
scalar Network.dyn_peer[129] 	lookupTimeSig:mean 	1.3444444444444
scalar Network.dyn_peer[129] 	lookupStabilitySig:mean 	0.87182297780075
scalar Network.dyn_peer[129] 	lookupHopsSig:mean 	12.555555555556
scalar Network.dyn_peer[130] 	lookupTimeSig:mean 	1.7166666666667
scalar Network.dyn_peer[130] 	lookupStabilitySig:mean 	0.76440441980958
scalar Network.dyn_peer[130] 	lookupHopsSig:mean 	16.333333333333
scalar Network.dyn_peer[131] 	lookupTimeSig:mean 	1.05
scalar Network.dyn_peer[131] 	lookupStabilitySig:mean 	0.3601596262306
scalar Network.dyn_peer[131] 	lookupHopsSig:mean 	9.75
scalar Network.dyn_peer[132] 	lookupTimeSig:mean 	1.025
scalar Network.dyn_peer[132] 	lookupStabilitySig:mean 	0.56060605030507
scalar Network.dyn_peer[132] 	lookupHopsSig:mean 	9.5
scalar Network.dyn_peer[133] 	lookupTimeSig:mean 	1.45
scalar Network.dyn_peer[133] 	lookupStabilitySig:mean 	0.86055350094102
scalar Network.dyn_peer[133] 	lookupHopsSig:mean 	13.625
scalar Network.dyn_peer[134] 	lookupTimeSig:mean 	1.12
scalar Network.dyn_peer[134] 	lookupStabilitySig:mean 	0.82468761028722
scalar Network.dyn_peer[134] 	lookupHopsSig:mean 	10.3
scalar Network.dyn_peer[135] 	lookupTimeSig:mean 	3.85
scalar Network.dyn_peer[135] 	lookupStabilitySig:mean 	-0.02050357311964
scalar Network.dyn_peer[135] 	lookupHopsSig:mean 	38
scalar Network.dyn_peer[136] 	lookupTimeSig:mean 	1.2333333333333
scalar Network.dyn_peer[136] 	lookupStabilitySig:mean 	0.16868685185909
scalar Network.dyn_peer[136] 	lookupHopsSig:mean 	11.666666666667
scalar Network.dyn_peer[137] 	lookupTimeSig:mean 	1.45
scalar Network.dyn_peer[137] 	lookupStabilitySig:mean 	0.65362997306511
scalar Network.dyn_peer[137] 	lookupHopsSig:mean 	13.75
scalar Network.dyn_peer[138] 	lookupTimeSig:mean 	1.83
scalar Network.dyn_peer[138] 	lookupStabilitySig:mean 	0.95080296101514
scalar Network.dyn_peer[138] 	lookupHopsSig:mean 	17.4
scalar Network.dyn_peer[139] 	lookupTimeSig:mean 	1.2333333333333
scalar Network.dyn_peer[139] 	lookupStabilitySig:mean 	0.77894897033305
scalar Network.dyn_peer[139] 	lookupHopsSig:mean 	11.416666666667
scalar Network.dyn_peer[140] 	lookupTimeSig:mean 	1.9444444444444
scalar Network.dyn_peer[140] 	lookupStabilitySig:mean 	0.77198044189976
scalar Network.dyn_peer[140] 	lookupHopsSig:mean 	18.555555555556
scalar Network.dyn_peer[141] 	lookupTimeSig:mean 	1.725
scalar Network.dyn_peer[141] 	lookupStabilitySig:mean 	0.81770512787625
scalar Network.dyn_peer[141] 	lookupHopsSig:mean 	16.5
scalar Network.dyn_peer[142] 	lookupTimeSig:mean 	1.8571428571429
scalar Network.dyn_peer[142] 	lookupStabilitySig:mean 	0.91749490424991
scalar Network.dyn_peer[142] 	lookupHopsSig:mean 	17.714285714286
scalar Network.dyn_peer[143] 	lookupTimeSig:mean 	1.19
scalar Network.dyn_peer[143] 	lookupStabilitySig:mean 	0.80709116645157
scalar Network.dyn_peer[143] 	lookupHopsSig:mean 	11
scalar Network.dyn_peer[144] 	lookupTimeSig:mean 	1.46
scalar Network.dyn_peer[144] 	lookupStabilitySig:mean 	0.68822155632079
scalar Network.dyn_peer[144] 	lookupHopsSig:mean 	13.8
scalar Network.dyn_peer[145] 	lookupTimeSig:mean 	1.3
scalar Network.dyn_peer[145] 	lookupStabilitySig:mean 	0.71914719119668
scalar Network.dyn_peer[145] 	lookupHopsSig:mean 	12.2
scalar Network.dyn_peer[146] 	lookupTimeSig:mean 	0.96666666666667
scalar Network.dyn_peer[146] 	lookupStabilitySig:mean 	0.67834149425228
scalar Network.dyn_peer[146] 	lookupHopsSig:mean 	8.8333333333333
scalar Network.dyn_peer[147] 	lookupTimeSig:mean 	1.3833333333333
scalar Network.dyn_peer[147] 	lookupStabilitySig:mean 	0.72582756231229
scalar Network.dyn_peer[147] 	lookupHopsSig:mean 	13
scalar Network.dyn_peer[148] 	lookupTimeSig:mean 	1.9
scalar Network.dyn_peer[148] 	lookupStabilitySig:mean 	0.34962640702724
scalar Network.dyn_peer[148] 	lookupHopsSig:mean 	18.5
scalar Network.dyn_peer[149] 	lookupTimeSig:mean 	1.125
scalar Network.dyn_peer[149] 	lookupStabilitySig:mean 	0.48581233993173
scalar Network.dyn_peer[149] 	lookupHopsSig:mean 	10.5
scalar Network.dyn_peer[150] 	lookupTimeSig:mean 	1.1
scalar Network.dyn_peer[150] 	lookupStabilitySig:mean 	0.32472526033719
scalar Network.dyn_peer[150] 	lookupHopsSig:mean 	10.333333333333
scalar Network.dyn_peer[151] 	lookupTimeSig:mean 	1.9857142857143
scalar Network.dyn_peer[151] 	lookupStabilitySig:mean 	0.9359001712541
scalar Network.dyn_peer[151] 	lookupHopsSig:mean 	19
scalar Network.dyn_peer[152] 	lookupTimeSig:mean 	1.6181818181818
scalar Network.dyn_peer[152] 	lookupStabilitySig:mean 	0.76420000322502
scalar Network.dyn_peer[152] 	lookupHopsSig:mean 	15.272727272727
scalar Network.dyn_peer[153] 	lookupTimeSig:mean 	1.475
scalar Network.dyn_peer[153] 	lookupStabilitySig:mean 	0.41071124060545
scalar Network.dyn_peer[153] 	lookupHopsSig:mean 	14
scalar Network.dyn_peer[154] 	lookupTimeSig:mean 	2.1714285714286
scalar Network.dyn_peer[154] 	lookupStabilitySig:mean 	0.9368062711853
scalar Network.dyn_peer[154] 	lookupHopsSig:mean 	20.857142857143
scalar Network.dyn_peer[155] 	lookupTimeSig:mean 	0.875
scalar Network.dyn_peer[155] 	lookupStabilitySig:mean 	0.48189654946327
scalar Network.dyn_peer[155] 	lookupHopsSig:mean 	8
scalar Network.dyn_peer[156] 	lookupTimeSig:mean 	1.22
scalar Network.dyn_peer[156] 	lookupStabilitySig:mean 	0.52842445895076
scalar Network.dyn_peer[156] 	lookupHopsSig:mean 	11.4
scalar Network.dyn_peer[157] 	lookupTimeSig:mean 	0.675
scalar Network.dyn_peer[157] 	lookupStabilitySig:mean 	0.44871707633138
scalar Network.dyn_peer[157] 	lookupHopsSig:mean 	6
scalar Network.dyn_peer[158] 	lookupTimeSig:mean 	1.3166666666667
scalar Network.dyn_peer[158] 	lookupStabilitySig:mean 	0.53236181102693
scalar Network.dyn_peer[158] 	lookupHopsSig:mean 	12.333333333333
scalar Network.dyn_peer[159] 	lookupTimeSig:mean 	3.45
scalar Network.dyn_peer[159] 	lookupStabilitySig:mean 	0.70786738395691
scalar Network.dyn_peer[159] 	lookupHopsSig:mean 	34
scalar Network.dyn_peer[160] 	lookupTimeSig:mean 	2.05
scalar Network.dyn_peer[160] 	lookupStabilitySig:mean 	0.49891303479671
scalar Network.dyn_peer[160] 	lookupHopsSig:mean 	20
scalar Network.dyn_peer[161] 	lookupTimeSig:mean 	0.66666666666667
scalar Network.dyn_peer[161] 	lookupStabilitySig:mean 	0.77907931778787
scalar Network.dyn_peer[161] 	lookupHopsSig:mean 	5.7777777777778
scalar Network.dyn_peer[162] 	lookupTimeSig:mean 	1.6857142857143
scalar Network.dyn_peer[162] 	lookupStabilitySig:mean 	0.90853528625199
scalar Network.dyn_peer[162] 	lookupHopsSig:mean 	16
scalar Network.dyn_peer[163] 	lookupTimeSig:mean 	1.4666666666667
scalar Network.dyn_peer[163] 	lookupStabilitySig:mean 	0.81877199891541
scalar Network.dyn_peer[163] 	lookupHopsSig:mean 	13.777777777778
scalar Network.dyn_peer[164] 	lookupTimeSig:mean 	2.85
scalar Network.dyn_peer[164] 	lookupStabilitySig:mean 	0.89164738589898
scalar Network.dyn_peer[164] 	lookupHopsSig:mean 	27.75
scalar Network.dyn_peer[165] 	lookupTimeSig:mean 	1.3428571428571
scalar Network.dyn_peer[165] 	lookupStabilitySig:mean 	0.72989346459508
scalar Network.dyn_peer[165] 	lookupHopsSig:mean 	12.571428571429
scalar Network.dyn_peer[166] 	lookupTimeSig:mean 	1.57
scalar Network.dyn_peer[166] 	lookupStabilitySig:mean 	0.95215896321461
scalar Network.dyn_peer[166] 	lookupHopsSig:mean 	14.8
scalar Network.dyn_peer[167] 	lookupTimeSig:mean 	1.5285714285714
scalar Network.dyn_peer[167] 	lookupStabilitySig:mean 	0.92001942678222
scalar Network.dyn_peer[167] 	lookupHopsSig:mean 	14.428571428571
scalar Network.dyn_peer[168] 	lookupTimeSig:mean 	1.025
scalar Network.dyn_peer[168] 	lookupStabilitySig:mean 	0.55579631403089
scalar Network.dyn_peer[168] 	lookupHopsSig:mean 	9.5
scalar Network.dyn_peer[169] 	lookupTimeSig:mean 	1.2714285714286
scalar Network.dyn_peer[169] 	lookupStabilitySig:mean 	0.84562658664903
scalar Network.dyn_peer[169] 	lookupHopsSig:mean 	11.857142857143
scalar Network.dyn_peer[170] 	lookupTimeSig:mean 	1.4
scalar Network.dyn_peer[170] 	lookupStabilitySig:mean 	0.45051746768877
scalar Network.dyn_peer[170] 	lookupHopsSig:mean 	13.25
scalar Network.dyn_peer[171] 	lookupTimeSig:mean 	2.3666666666667
scalar Network.dyn_peer[171] 	lookupStabilitySig:mean 	0.70985613266627
scalar Network.dyn_peer[171] 	lookupHopsSig:mean 	23
scalar Network.dyn_peer[172] 	lookupTimeSig:mean 	1.38
scalar Network.dyn_peer[172] 	lookupStabilitySig:mean 	0.77390726171434
scalar Network.dyn_peer[172] 	lookupHopsSig:mean 	13
scalar Network.dyn_peer[173] 	lookupTimeSig:mean 	2.1666666666667
scalar Network.dyn_peer[173] 	lookupStabilitySig:mean 	0.67375912020604
scalar Network.dyn_peer[173] 	lookupHopsSig:mean 	21
scalar Network.dyn_peer[174] 	lookupTimeSig:mean 	1.1142857142857
scalar Network.dyn_peer[174] 	lookupStabilitySig:mean 	0.65367044322193
scalar Network.dyn_peer[174] 	lookupHopsSig:mean 	10.285714285714
scalar Network.dyn_peer[175] 	lookupTimeSig:mean 	1.4
scalar Network.dyn_peer[175] 	lookupStabilitySig:mean 	0.36166665951411
scalar Network.dyn_peer[175] 	lookupHopsSig:mean 	13.333333333333
scalar Network.dyn_peer[176] 	lookupTimeSig:mean 	1.3333333333333
scalar Network.dyn_peer[176] 	lookupStabilitySig:mean 	0.16411958138148
scalar Network.dyn_peer[176] 	lookupHopsSig:mean 	12.666666666667
scalar Network.dyn_peer[177] 	lookupTimeSig:mean 	1
scalar Network.dyn_peer[177] 	lookupStabilitySig:mean 	0.44644036740065
scalar Network.dyn_peer[177] 	lookupHopsSig:mean 	9.2
scalar Network.dyn_peer[178] 	lookupTimeSig:mean 	1.5
scalar Network.dyn_peer[178] 	lookupStabilitySig:mean 	0.67184002573291
scalar Network.dyn_peer[178] 	lookupHopsSig:mean 	14.166666666667
scalar Network.dyn_peer[179] 	lookupTimeSig:mean 	1.0666666666667
scalar Network.dyn_peer[179] 	lookupStabilitySig:mean 	0.079738567272822
scalar Network.dyn_peer[179] 	lookupHopsSig:mean 	10
scalar Network.dyn_peer[180] 	lookupTimeSig:mean 	1.6833333333333
scalar Network.dyn_peer[180] 	lookupStabilitySig:mean 	0.63747183264544
scalar Network.dyn_peer[180] 	lookupHopsSig:mean 	16
scalar Network.dyn_peer[181] 	lookupTimeSig:mean 	1.5
scalar Network.dyn_peer[181] 	lookupStabilitySig:mean 	0.42111037625
scalar Network.dyn_peer[181] 	lookupHopsSig:mean 	14.25
scalar Network.dyn_peer[182] 	lookupTimeSig:mean 	2.9
scalar Network.dyn_peer[182] 	lookupStabilitySig:mean 	0.66682692120473
scalar Network.dyn_peer[182] 	lookupHopsSig:mean 	28.333333333333
scalar Network.dyn_peer[183] 	lookupTimeSig:mean 	0.87142857142857
scalar Network.dyn_peer[183] 	lookupStabilitySig:mean 	0.67790085662689
scalar Network.dyn_peer[183] 	lookupHopsSig:mean 	7.8571428571429
scalar Network.dyn_peer[184] 	lookupTimeSig:mean 	1.05
scalar Network.dyn_peer[184] 	lookupStabilitySig:mean 	0.62297994270921
scalar Network.dyn_peer[184] 	lookupHopsSig:mean 	9.625
scalar Network.dyn_peer[185] 	lookupTimeSig:mean 	1.1
scalar Network.dyn_peer[185] 	lookupStabilitySig:mean 	0.39150943358739
scalar Network.dyn_peer[185] 	lookupHopsSig:mean 	10.333333333333
scalar Network.dyn_peer[186] 	lookupTimeSig:mean 	1.5
scalar Network.dyn_peer[186] 	lookupStabilitySig:mean 	0.53539062663913
scalar Network.dyn_peer[186] 	lookupHopsSig:mean 	14.25
scalar Network.dyn_peer[187] 	lookupTimeSig:mean 	2.85
scalar Network.dyn_peer[187] 	lookupStabilitySig:mean 	-0.0093708261847496
scalar Network.dyn_peer[187] 	lookupHopsSig:mean 	28
scalar Network.dyn_peer[188] 	lookupTimeSig:mean 	3.0666666666667
scalar Network.dyn_peer[188] 	lookupStabilitySig:mean 	0.88861628621817
scalar Network.dyn_peer[188] 	lookupHopsSig:mean 	30
scalar Network.dyn_peer[189] 	lookupTimeSig:mean 	1.5181818181818
scalar Network.dyn_peer[189] 	lookupStabilitySig:mean 	0.83337865270336
scalar Network.dyn_peer[189] 	lookupHopsSig:mean 	14.272727272727
scalar Network.dyn_peer[190] 	lookupTimeSig:mean 	1.1375
scalar Network.dyn_peer[190] 	lookupStabilitySig:mean 	0.67999007063918
scalar Network.dyn_peer[190] 	lookupHopsSig:mean 	10.5
scalar Network.dyn_peer[191] 	lookupTimeSig:mean 	0.425
scalar Network.dyn_peer[191] 	lookupStabilitySig:mean 	0.39166666939855
scalar Network.dyn_peer[191] 	lookupHopsSig:mean 	3.5
scalar Network.dyn_peer[192] 	lookupTimeSig:mean 	1.64
scalar Network.dyn_peer[192] 	lookupStabilitySig:mean 	0.89012555666268
scalar Network.dyn_peer[192] 	lookupHopsSig:mean 	15.5
scalar Network.dyn_peer[193] 	lookupTimeSig:mean 	1.6
scalar Network.dyn_peer[193] 	lookupStabilitySig:mean 	0.57225630246103
scalar Network.dyn_peer[193] 	lookupHopsSig:mean 	15.25
scalar Network.dyn_peer[194] 	lookupTimeSig:mean 	1.41
scalar Network.dyn_peer[194] 	lookupStabilitySig:mean 	0.94103253595531
scalar Network.dyn_peer[194] 	lookupHopsSig:mean 	13.2
scalar Network.dyn_peer[195] 	lookupTimeSig:mean 	1.72
scalar Network.dyn_peer[195] 	lookupStabilitySig:mean 	0.93246049545705
scalar Network.dyn_peer[195] 	lookupHopsSig:mean 	16.3
scalar Network.dyn_peer[196] 	lookupTimeSig:mean 	1.6
scalar Network.dyn_peer[196] 	lookupStabilitySig:mean 	0.34474598243833
scalar Network.dyn_peer[196] 	lookupHopsSig:mean 	15.25
scalar Network.dyn_peer[197] 	lookupTimeSig:mean 	2.05
scalar Network.dyn_peer[197] 	lookupStabilitySig:mean 	0.49888029601425
scalar Network.dyn_peer[197] 	lookupHopsSig:mean 	19.75
scalar Network.dyn_peer[198] 	lookupTimeSig:mean 	1.2833333333333
scalar Network.dyn_peer[198] 	lookupStabilitySig:mean 	0.6004276809593
scalar Network.dyn_peer[198] 	lookupHopsSig:mean 	12
scalar Network.dyn_peer[199] 	lookupTimeSig:mean 	1.625
scalar Network.dyn_peer[199] 	lookupStabilitySig:mean 	0.729005954694
scalar Network.dyn_peer[199] 	lookupHopsSig:mean 	15.5
scalar Network.dyn_peer[200] 	lookupTimeSig:mean 	0.75
scalar Network.dyn_peer[200] 	lookupStabilitySig:mean 	0.34397017583251
scalar Network.dyn_peer[200] 	lookupHopsSig:mean 	6.75
scalar Network.dyn_peer[201] 	lookupTimeSig:mean 	1.2777777777778
scalar Network.dyn_peer[201] 	lookupStabilitySig:mean 	0.72162010706961
scalar Network.dyn_peer[201] 	lookupHopsSig:mean 	11.888888888889
scalar Network.dyn_peer[202] 	lookupTimeSig:mean 	1.52
scalar Network.dyn_peer[202] 	lookupStabilitySig:mean 	0.70297988280654
scalar Network.dyn_peer[202] 	lookupHopsSig:mean 	14.4
scalar Network.dyn_peer[203] 	lookupTimeSig:mean 	2.8
scalar Network.dyn_peer[203] 	lookupStabilitySig:mean 	0.55157684162259
scalar Network.dyn_peer[203] 	lookupHopsSig:mean 	27.333333333333
scalar Network.dyn_peer[204] 	lookupTimeSig:mean 	2.0666666666667
scalar Network.dyn_peer[204] 	lookupStabilitySig:mean 	0.91898414782352
scalar Network.dyn_peer[204] 	lookupHopsSig:mean 	19.777777777778
scalar Network.dyn_peer[205] 	lookupTimeSig:mean 	1.4833333333333
scalar Network.dyn_peer[205] 	lookupStabilitySig:mean 	0.85730721770475
scalar Network.dyn_peer[205] 	lookupHopsSig:mean 	14
scalar Network.dyn_peer[206] 	lookupTimeSig:mean 	1.8
scalar Network.dyn_peer[206] 	lookupStabilitySig:mean 	0.34126981347799
scalar Network.dyn_peer[206] 	lookupHopsSig:mean 	17.5
scalar Network.dyn_peer[207] 	lookupTimeSig:mean 	1.5666666666667
scalar Network.dyn_peer[207] 	lookupStabilitySig:mean 	0.5328282546252
scalar Network.dyn_peer[207] 	lookupHopsSig:mean 	14.833333333333
scalar Network.dyn_peer[208] 	lookupTimeSig:mean 	1.38
scalar Network.dyn_peer[208] 	lookupStabilitySig:mean 	0.8922062586993
scalar Network.dyn_peer[208] 	lookupHopsSig:mean 	13
scalar Network.dyn_peer[209] 	lookupTimeSig:mean 	0.97
scalar Network.dyn_peer[209] 	lookupStabilitySig:mean 	0.75034284600988
scalar Network.dyn_peer[209] 	lookupHopsSig:mean 	8.8
scalar Network.dyn_peer[210] 	lookupTimeSig:mean 	1.18
scalar Network.dyn_peer[210] 	lookupStabilitySig:mean 	0.5836028970778
scalar Network.dyn_peer[210] 	lookupHopsSig:mean 	11
scalar Network.dyn_peer[211] 	lookupTimeSig:mean 	2.1
scalar Network.dyn_peer[211] 	lookupStabilitySig:mean 	-0.066212877631187
scalar Network.dyn_peer[211] 	lookupHopsSig:mean 	20.5
scalar Network.dyn_peer[212] 	lookupTimeSig:mean 	1.85
scalar Network.dyn_peer[212] 	lookupStabilitySig:mean 	0.34406436234713
scalar Network.dyn_peer[212] 	lookupHopsSig:mean 	18
scalar Network.dyn_peer[213] 	lookupTimeSig:mean 	1.6571428571429
scalar Network.dyn_peer[213] 	lookupStabilitySig:mean 	0.75091086700559
scalar Network.dyn_peer[213] 	lookupHopsSig:mean 	15.714285714286
scalar Network.dyn_peer[214] 	lookupTimeSig:mean 	1.625
scalar Network.dyn_peer[214] 	lookupStabilitySig:mean 	0.60519746039063
scalar Network.dyn_peer[214] 	lookupHopsSig:mean 	15.5
scalar Network.dyn_peer[215] 	lookupTimeSig:mean 	1.1714285714286
scalar Network.dyn_peer[215] 	lookupStabilitySig:mean 	0.93973616607088
scalar Network.dyn_peer[215] 	lookupHopsSig:mean 	10.785714285714
scalar Network.dyn_peer[216] 	lookupTimeSig:mean 	1.3
scalar Network.dyn_peer[216] 	lookupStabilitySig:mean 	0.65371453016996
scalar Network.dyn_peer[216] 	lookupHopsSig:mean 	12.333333333333
scalar Network.dyn_peer[217] 	lookupTimeSig:mean 	1.775
scalar Network.dyn_peer[217] 	lookupStabilitySig:mean 	0.65079167671502
scalar Network.dyn_peer[217] 	lookupHopsSig:mean 	17
scalar Network.dyn_peer[218] 	lookupTimeSig:mean 	1.2666666666667
scalar Network.dyn_peer[218] 	lookupStabilitySig:mean 	0.5436733312284
scalar Network.dyn_peer[218] 	lookupHopsSig:mean 	11.833333333333
scalar Network.dyn_peer[219] 	lookupTimeSig:mean 	2.0111111111111
scalar Network.dyn_peer[219] 	lookupStabilitySig:mean 	0.93564763737635
scalar Network.dyn_peer[219] 	lookupHopsSig:mean 	19.222222222222
scalar Network.dyn_peer[220] 	lookupTimeSig:mean 	0.7
scalar Network.dyn_peer[220] 	lookupStabilitySig:mean 	0.2476190601786
scalar Network.dyn_peer[220] 	lookupHopsSig:mean 	6.3333333333333
scalar Network.dyn_peer[221] 	lookupTimeSig:mean 	0.775
scalar Network.dyn_peer[221] 	lookupStabilitySig:mean 	0.28571427986026
scalar Network.dyn_peer[221] 	lookupHopsSig:mean 	7
scalar Network.dyn_peer[222] 	lookupTimeSig:mean 	1.65
scalar Network.dyn_peer[222] 	lookupStabilitySig:mean 	0.56136460416019
scalar Network.dyn_peer[222] 	lookupHopsSig:mean 	15.75
scalar Network.dyn_peer[223] 	lookupTimeSig:mean 	1.28
scalar Network.dyn_peer[223] 	lookupStabilitySig:mean 	0.60507728531957
scalar Network.dyn_peer[223] 	lookupHopsSig:mean 	12
scalar Network.dyn_peer[224] 	lookupTimeSig:mean 	2.55
scalar Network.dyn_peer[224] 	lookupStabilitySig:mean 	0.71008128672838
scalar Network.dyn_peer[224] 	lookupHopsSig:mean 	25
scalar Network.dyn_peer[225] 	lookupTimeSig:mean 	0.675
scalar Network.dyn_peer[225] 	lookupStabilitySig:mean 	0.39087301120162
scalar Network.dyn_peer[225] 	lookupHopsSig:mean 	6
scalar Network.dyn_peer[226] 	lookupTimeSig:mean 	1.22
scalar Network.dyn_peer[226] 	lookupStabilitySig:mean 	0.80060980618
scalar Network.dyn_peer[226] 	lookupHopsSig:mean 	11.4
scalar Network.dyn_peer[227] 	lookupTimeSig:mean 	1.37
scalar Network.dyn_peer[227] 	lookupStabilitySig:mean 	0.88580601867288
scalar Network.dyn_peer[227] 	lookupHopsSig:mean 	12.8
scalar Network.dyn_peer[228] 	lookupTimeSig:mean 	1.5428571428571
scalar Network.dyn_peer[228] 	lookupStabilitySig:mean 	0.71312299636858
scalar Network.dyn_peer[228] 	lookupHopsSig:mean 	14.571428571429
scalar Network.dyn_peer[229] 	lookupTimeSig:mean 	2.18
scalar Network.dyn_peer[229] 	lookupStabilitySig:mean 	0.90171442478895
scalar Network.dyn_peer[229] 	lookupHopsSig:mean 	21
scalar Network.dyn_peer[230] 	lookupTimeSig:mean 	1.5666666666667
scalar Network.dyn_peer[230] 	lookupStabilitySig:mean 	0.87439708045373
scalar Network.dyn_peer[230] 	lookupHopsSig:mean 	14.733333333333
scalar Network.dyn_peer[231] 	lookupTimeSig:mean 	1.35
scalar Network.dyn_peer[231] 	lookupStabilitySig:mean 	0.43174603581429
scalar Network.dyn_peer[231] 	lookupHopsSig:mean 	12.75
scalar Network.dyn_peer[232] 	lookupTimeSig:mean 	2.375
scalar Network.dyn_peer[232] 	lookupStabilitySig:mean 	0.83215754432604
scalar Network.dyn_peer[232] 	lookupHopsSig:mean 	23
scalar Network.dyn_peer[233] 	lookupTimeSig:mean 	1.5
scalar Network.dyn_peer[233] 	lookupStabilitySig:mean 	0.51525736227632
scalar Network.dyn_peer[233] 	lookupHopsSig:mean 	14.25
scalar Network.dyn_peer[234] 	lookupTimeSig:mean 	1.5714285714286
scalar Network.dyn_peer[234] 	lookupStabilitySig:mean 	0.78035439604095
scalar Network.dyn_peer[234] 	lookupHopsSig:mean 	14.857142857143
scalar Network.dyn_peer[235] 	lookupTimeSig:mean 	1.15
scalar Network.dyn_peer[235] 	lookupStabilitySig:mean 	0.19999998807907
scalar Network.dyn_peer[235] 	lookupHopsSig:mean 	11
scalar Network.dyn_peer[236] 	lookupTimeSig:mean 	1.2
scalar Network.dyn_peer[236] 	lookupStabilitySig:mean 	0.5001655459404
scalar Network.dyn_peer[236] 	lookupHopsSig:mean 	11.2
scalar Network.dyn_peer[237] 	lookupTimeSig:mean 	1.25
scalar Network.dyn_peer[237] 	lookupStabilitySig:mean 	0.7632417762652
scalar Network.dyn_peer[237] 	lookupHopsSig:mean 	11.666666666667
scalar Network.dyn_peer[238] 	lookupTimeSig:mean 	0.9
scalar Network.dyn_peer[238] 	lookupStabilitySig:mean 	-0.12499997019768
scalar Network.dyn_peer[238] 	lookupHopsSig:mean 	8.5
scalar Network.dyn_peer[239] 	lookupTimeSig:mean 	1.2
scalar Network.dyn_peer[239] 	lookupStabilitySig:mean 	0.40422828448936
scalar Network.dyn_peer[239] 	lookupHopsSig:mean 	11.25
scalar Network.dyn_peer[240] 	lookupTimeSig:mean 	2.175
scalar Network.dyn_peer[240] 	lookupStabilitySig:mean 	0.79953449685127
scalar Network.dyn_peer[240] 	lookupHopsSig:mean 	21
scalar Network.dyn_peer[241] 	lookupTimeSig:mean 	1.1888888888889
scalar Network.dyn_peer[241] 	lookupStabilitySig:mean 	0.72304275766429
scalar Network.dyn_peer[241] 	lookupHopsSig:mean 	11
scalar Network.dyn_peer[242] 	lookupTimeSig:mean 	1.3666666666667
scalar Network.dyn_peer[242] 	lookupStabilitySig:mean 	0.21783826003472
scalar Network.dyn_peer[242] 	lookupHopsSig:mean 	13
scalar Network.dyn_peer[243] 	lookupTimeSig:mean 	1.5666666666667
scalar Network.dyn_peer[243] 	lookupStabilitySig:mean 	0.59492442756891
scalar Network.dyn_peer[243] 	lookupHopsSig:mean 	15
scalar Network.dyn_peer[244] 	lookupTimeSig:mean 	4.35
scalar Network.dyn_peer[244] 	lookupStabilitySig:mean 	0.62100905179977
scalar Network.dyn_peer[244] 	lookupHopsSig:mean 	43
scalar Network.dyn_peer[245] 	lookupTimeSig:mean 	1.3142857142857
scalar Network.dyn_peer[245] 	lookupStabilitySig:mean 	0.93968256918846
scalar Network.dyn_peer[245] 	lookupHopsSig:mean 	12.214285714286
scalar Network.dyn_peer[246] 	lookupTimeSig:mean 	1.4888888888889
scalar Network.dyn_peer[246] 	lookupStabilitySig:mean 	0.92975175111658
scalar Network.dyn_peer[246] 	lookupHopsSig:mean 	14
scalar Network.dyn_peer[247] 	lookupTimeSig:mean 	1.5333333333333
scalar Network.dyn_peer[247] 	lookupStabilitySig:mean 	0.17466666301092
scalar Network.dyn_peer[247] 	lookupHopsSig:mean 	14.666666666667
scalar Network.dyn_peer[248] 	lookupTimeSig:mean 	1.2090909090909
scalar Network.dyn_peer[248] 	lookupStabilitySig:mean 	0.73176912861792
scalar Network.dyn_peer[248] 	lookupHopsSig:mean 	11.181818181818
scalar Network.dyn_peer[249] 	lookupTimeSig:mean 	1.1727272727273
scalar Network.dyn_peer[249] 	lookupStabilitySig:mean 	0.80977970488708
scalar Network.dyn_peer[249] 	lookupHopsSig:mean 	10.818181818182
scalar Network.dyn_peer[250] 	lookupTimeSig:mean 	1.3333333333333
scalar Network.dyn_peer[250] 	lookupStabilitySig:mean 	0.4165140564243
scalar Network.dyn_peer[250] 	lookupHopsSig:mean 	12.666666666667
scalar Network.dyn_peer[251] 	lookupTimeSig:mean 	1.2
scalar Network.dyn_peer[251] 	lookupStabilitySig:mean 	0.45667933505028
scalar Network.dyn_peer[251] 	lookupHopsSig:mean 	11.2
scalar Network.dyn_peer[252] 	lookupTimeSig:mean 	1.9285714285714
scalar Network.dyn_peer[252] 	lookupStabilitySig:mean 	0.86569995818926
scalar Network.dyn_peer[252] 	lookupHopsSig:mean 	18.428571428571
scalar Network.dyn_peer[253] 	lookupTimeSig:mean 	1.46
scalar Network.dyn_peer[253] 	lookupStabilitySig:mean 	0.52939406707883
scalar Network.dyn_peer[253] 	lookupHopsSig:mean 	13.8
scalar Network.dyn_peer[254] 	lookupTimeSig:mean 	3.8
scalar Network.dyn_peer[254] 	lookupStabilitySig:mean 	-0.11290322244167
scalar Network.dyn_peer[254] 	lookupHopsSig:mean 	37.5
scalar Network.dyn_peer[255] 	lookupTimeSig:mean 	1.5333333333333
scalar Network.dyn_peer[255] 	lookupStabilitySig:mean 	0.86123588355258
scalar Network.dyn_peer[255] 	lookupHopsSig:mean 	14.5
scalar Network.dyn_peer[256] 	lookupTimeSig:mean 	1.4
scalar Network.dyn_peer[256] 	lookupStabilitySig:mean 	0.55607938130076
scalar Network.dyn_peer[256] 	lookupHopsSig:mean 	13.166666666667
scalar Network.dyn_peer[257] 	lookupTimeSig:mean 	1.875
scalar Network.dyn_peer[257] 	lookupStabilitySig:mean 	0.56087922956795
scalar Network.dyn_peer[257] 	lookupHopsSig:mean 	18
scalar Network.dyn_peer[258] 	lookupTimeSig:mean 	1.4777777777778
scalar Network.dyn_peer[258] 	lookupStabilitySig:mean 	0.88347682460315
scalar Network.dyn_peer[258] 	lookupHopsSig:mean 	13.888888888889
scalar Network.dyn_peer[259] 	lookupTimeSig:mean 	1.5
scalar Network.dyn_peer[259] 	lookupStabilitySig:mean 	0.75835769809783
scalar Network.dyn_peer[259] 	lookupHopsSig:mean 	14.25
scalar Network.dyn_peer[260] 	lookupTimeSig:mean 	1.3666666666667
scalar Network.dyn_peer[260] 	lookupStabilitySig:mean 	0.67055148227761
scalar Network.dyn_peer[260] 	lookupHopsSig:mean 	13
scalar Network.dyn_peer[261] 	lookupTimeSig:mean 	1.9333333333333
scalar Network.dyn_peer[261] 	lookupStabilitySig:mean 	0.38698064535856
scalar Network.dyn_peer[261] 	lookupHopsSig:mean 	18.666666666667
scalar Network.dyn_peer[262] 	lookupTimeSig:mean 	1.475
scalar Network.dyn_peer[262] 	lookupStabilitySig:mean 	0.62204708531499
scalar Network.dyn_peer[262] 	lookupHopsSig:mean 	14
scalar Network.dyn_peer[263] 	lookupTimeSig:mean 	0.9
scalar Network.dyn_peer[263] 	lookupStabilitySig:mean 	0.45082213613205
scalar Network.dyn_peer[263] 	lookupHopsSig:mean 	8.25
scalar Network.dyn_peer[264] 	lookupTimeSig:mean 	1.16
scalar Network.dyn_peer[264] 	lookupStabilitySig:mean 	0.82191975521855
scalar Network.dyn_peer[264] 	lookupHopsSig:mean 	10.7
scalar Network.dyn_peer[265] 	lookupTimeSig:mean 	0.83333333333333
scalar Network.dyn_peer[265] 	lookupStabilitySig:mean 	0.18444445729256
scalar Network.dyn_peer[265] 	lookupHopsSig:mean 	7.6666666666667
scalar Network.dyn_peer[266] 	lookupTimeSig:mean 	1.2
scalar Network.dyn_peer[266] 	lookupStabilitySig:mean 	0.42458645751079
scalar Network.dyn_peer[266] 	lookupHopsSig:mean 	11.333333333333
scalar Network.dyn_peer[267] 	lookupTimeSig:mean 	1.7
scalar Network.dyn_peer[267] 	lookupStabilitySig:mean 	0.92750527583329
scalar Network.dyn_peer[267] 	lookupHopsSig:mean 	16.142857142857
scalar Network.dyn_peer[268] 	lookupTimeSig:mean 	1.1875
scalar Network.dyn_peer[268] 	lookupStabilitySig:mean 	0.6511886693188
scalar Network.dyn_peer[268] 	lookupHopsSig:mean 	11
scalar Network.dyn_peer[269] 	lookupTimeSig:mean 	1.8
scalar Network.dyn_peer[269] 	lookupStabilitySig:mean 	0.40250642225146
scalar Network.dyn_peer[269] 	lookupHopsSig:mean 	17.25
scalar Network.dyn_peer[270] 	lookupTimeSig:mean 	1.4
scalar Network.dyn_peer[270] 	lookupStabilitySig:mean 	0.42632523427407
scalar Network.dyn_peer[270] 	lookupHopsSig:mean 	13.333333333333
scalar Network.dyn_peer[271] 	lookupTimeSig:mean 	1.63
scalar Network.dyn_peer[271] 	lookupStabilitySig:mean 	0.81646899413317
scalar Network.dyn_peer[271] 	lookupHopsSig:mean 	15.4
scalar Network.dyn_peer[272] 	lookupTimeSig:mean 	1.05
scalar Network.dyn_peer[272] 	lookupStabilitySig:mean 	0.37534722872078
scalar Network.dyn_peer[272] 	lookupHopsSig:mean 	9.75
scalar Network.dyn_peer[273] 	lookupTimeSig:mean 	1.5142857142857
scalar Network.dyn_peer[273] 	lookupStabilitySig:mean 	0.87849524750241
scalar Network.dyn_peer[273] 	lookupHopsSig:mean 	14.285714285714
scalar Network.dyn_peer[274] 	lookupTimeSig:mean 	1.5333333333333
scalar Network.dyn_peer[274] 	lookupStabilitySig:mean 	0.69724310934544
scalar Network.dyn_peer[274] 	lookupHopsSig:mean 	14.666666666667
scalar Network.dyn_peer[275] 	lookupTimeSig:mean 	0.925
scalar Network.dyn_peer[275] 	lookupStabilitySig:mean 	0.51562499254942
scalar Network.dyn_peer[275] 	lookupHopsSig:mean 	8.5
scalar Network.dyn_peer[276] 	lookupTimeSig:mean 	1.4
scalar Network.dyn_peer[276] 	lookupStabilitySig:mean 	0.75116360932589
scalar Network.dyn_peer[276] 	lookupHopsSig:mean 	13.2
scalar Network.dyn_peer[277] 	lookupTimeSig:mean 	2.0142857142857
scalar Network.dyn_peer[277] 	lookupStabilitySig:mean 	0.91817306966654
scalar Network.dyn_peer[277] 	lookupHopsSig:mean 	19.285714285714
scalar Network.dyn_peer[278] 	lookupTimeSig:mean 	1.3625
scalar Network.dyn_peer[278] 	lookupStabilitySig:mean 	0.92378190811723
scalar Network.dyn_peer[278] 	lookupHopsSig:mean 	12.75
scalar Network.dyn_peer[279] 	lookupTimeSig:mean 	1.9857142857143
scalar Network.dyn_peer[279] 	lookupStabilitySig:mean 	0.73990489569093
scalar Network.dyn_peer[279] 	lookupHopsSig:mean 	19
scalar Network.dyn_peer[280] 	lookupTimeSig:mean 	1.975
scalar Network.dyn_peer[280] 	lookupStabilitySig:mean 	0.45183610683307
scalar Network.dyn_peer[280] 	lookupHopsSig:mean 	19
scalar Network.dyn_peer[281] 	lookupTimeSig:mean 	1.6333333333333
scalar Network.dyn_peer[281] 	lookupStabilitySig:mean 	0.41659703602393
scalar Network.dyn_peer[281] 	lookupHopsSig:mean 	15.666666666667
scalar Network.dyn_peer[282] 	lookupTimeSig:mean 	1.6
scalar Network.dyn_peer[282] 	lookupStabilitySig:mean 	0.52987711760215
scalar Network.dyn_peer[282] 	lookupHopsSig:mean 	15.25
scalar Network.dyn_peer[283] 	lookupTimeSig:mean 	1.2166666666667
scalar Network.dyn_peer[283] 	lookupStabilitySig:mean 	0.61788594474395
scalar Network.dyn_peer[283] 	lookupHopsSig:mean 	11.333333333333
scalar Network.dyn_peer[284] 	lookupTimeSig:mean 	1
scalar Network.dyn_peer[284] 	lookupStabilitySig:mean 	0.55284524150193
scalar Network.dyn_peer[284] 	lookupHopsSig:mean 	9.25
scalar Network.dyn_peer[285] 	lookupTimeSig:mean 	1.45
scalar Network.dyn_peer[285] 	lookupStabilitySig:mean 	0.68371391389519
scalar Network.dyn_peer[285] 	lookupHopsSig:mean 	13.75
scalar Network.dyn_peer[286] 	lookupTimeSig:mean 	2.0857142857143
scalar Network.dyn_peer[286] 	lookupStabilitySig:mean 	0.90305763123823
scalar Network.dyn_peer[286] 	lookupHopsSig:mean 	20
scalar Network.dyn_peer[287] 	lookupTimeSig:mean 	1.65
scalar Network.dyn_peer[287] 	lookupStabilitySig:mean 	0.72341084526852
scalar Network.dyn_peer[287] 	lookupHopsSig:mean 	15.625
scalar Network.dyn_peer[288] 	lookupTimeSig:mean 	1.6
scalar Network.dyn_peer[288] 	lookupStabilitySig:mean 	0.69223057727019
scalar Network.dyn_peer[288] 	lookupHopsSig:mean 	15.333333333333
scalar Network.dyn_peer[289] 	lookupTimeSig:mean 	1.8857142857143
scalar Network.dyn_peer[289] 	lookupStabilitySig:mean 	0.66235660708376
scalar Network.dyn_peer[289] 	lookupHopsSig:mean 	18
scalar Network.dyn_peer[290] 	lookupTimeSig:mean 	1.5777777777778
scalar Network.dyn_peer[290] 	lookupStabilitySig:mean 	0.89142720929037
scalar Network.dyn_peer[290] 	lookupHopsSig:mean 	14.888888888889
scalar Network.dyn_peer[291] 	lookupTimeSig:mean 	1.5916666666667
scalar Network.dyn_peer[291] 	lookupStabilitySig:mean 	0.79831038236928
scalar Network.dyn_peer[291] 	lookupHopsSig:mean 	15
scalar Network.dyn_peer[292] 	lookupTimeSig:mean 	1.35
scalar Network.dyn_peer[292] 	lookupStabilitySig:mean 	0.20238093286753
scalar Network.dyn_peer[292] 	lookupHopsSig:mean 	13
scalar Network.dyn_peer[293] 	lookupTimeSig:mean 	1.675
scalar Network.dyn_peer[293] 	lookupStabilitySig:mean 	0.82046509254724
scalar Network.dyn_peer[293] 	lookupHopsSig:mean 	16
scalar Network.dyn_peer[294] 	lookupTimeSig:mean 	1.125
scalar Network.dyn_peer[294] 	lookupStabilitySig:mean 	0.57286813436076
scalar Network.dyn_peer[294] 	lookupHopsSig:mean 	10.5
scalar Network.dyn_peer[295] 	lookupTimeSig:mean 	1.4
scalar Network.dyn_peer[295] 	lookupStabilitySig:mean 	0.77750850220521
scalar Network.dyn_peer[295] 	lookupHopsSig:mean 	13.333333333333
scalar Network.dyn_peer[296] 	lookupTimeSig:mean 	1.3833333333333
scalar Network.dyn_peer[296] 	lookupStabilitySig:mean 	0.89847168916216
scalar Network.dyn_peer[296] 	lookupHopsSig:mean 	13
scalar Network.dyn_peer[297] 	lookupTimeSig:mean 	1.68
scalar Network.dyn_peer[297] 	lookupStabilitySig:mean 	0.7251332655549
scalar Network.dyn_peer[297] 	lookupHopsSig:mean 	16
scalar Network.dyn_peer[298] 	lookupTimeSig:mean 	1.3416666666667
scalar Network.dyn_peer[298] 	lookupStabilitySig:mean 	0.82942246940608
scalar Network.dyn_peer[298] 	lookupHopsSig:mean 	12.5
scalar Network.dyn_peer[299] 	lookupTimeSig:mean 	1.6666666666667
scalar Network.dyn_peer[299] 	lookupStabilitySig:mean 	0.94128850362419
scalar Network.dyn_peer[299] 	lookupHopsSig:mean 	15.75
scalar Network.dyn_peer[300] 	lookupTimeSig:mean 	1.4
scalar Network.dyn_peer[300] 	lookupStabilitySig:mean 	0.85745700448751
scalar Network.dyn_peer[300] 	lookupHopsSig:mean 	13.111111111111
scalar Network.dyn_peer[301] 	lookupTimeSig:mean 	1.35
scalar Network.dyn_peer[301] 	lookupStabilitySig:mean 	0.93566197209293
scalar Network.dyn_peer[301] 	lookupHopsSig:mean 	12.625
scalar Network.dyn_peer[302] 	lookupTimeSig:mean 	1.875
scalar Network.dyn_peer[302] 	lookupStabilitySig:mean 	0.80349274032051
scalar Network.dyn_peer[302] 	lookupHopsSig:mean 	17.875
scalar Network.dyn_peer[303] 	lookupTimeSig:mean 	1.525
scalar Network.dyn_peer[303] 	lookupStabilitySig:mean 	0.81990434229374
scalar Network.dyn_peer[303] 	lookupHopsSig:mean 	14.5
scalar Network.dyn_peer[304] 	lookupTimeSig:mean 	1.26
scalar Network.dyn_peer[304] 	lookupStabilitySig:mean 	0.54104001373053
scalar Network.dyn_peer[304] 	lookupHopsSig:mean 	11.8
scalar Network.dyn_peer[305] 	lookupTimeSig:mean 	0.725
scalar Network.dyn_peer[305] 	lookupStabilitySig:mean 	0.37214480619878
scalar Network.dyn_peer[305] 	lookupHopsSig:mean 	6.5
scalar Network.dyn_peer[306] 	lookupTimeSig:mean 	0.58
scalar Network.dyn_peer[306] 	lookupStabilitySig:mean 	0.51779221445322
scalar Network.dyn_peer[306] 	lookupHopsSig:mean 	5
scalar Network.dyn_peer[307] 	lookupTimeSig:mean 	1.4
scalar Network.dyn_peer[307] 	lookupStabilitySig:mean 	0.69110268168151
scalar Network.dyn_peer[307] 	lookupHopsSig:mean 	13.166666666667
scalar Network.dyn_peer[308] 	lookupTimeSig:mean 	1.275
scalar Network.dyn_peer[308] 	lookupStabilitySig:mean 	0.6032069567591
scalar Network.dyn_peer[308] 	lookupHopsSig:mean 	12
scalar Network.dyn_peer[309] 	lookupTimeSig:mean 	3.0333333333333
scalar Network.dyn_peer[309] 	lookupStabilitySig:mean 	0.73571629573901
scalar Network.dyn_peer[309] 	lookupHopsSig:mean 	29.666666666667
scalar Network.dyn_peer[310] 	lookupTimeSig:mean 	1.7833333333333
scalar Network.dyn_peer[310] 	lookupStabilitySig:mean 	0.9298658471865
scalar Network.dyn_peer[310] 	lookupHopsSig:mean 	17
scalar Network.dyn_peer[311] 	lookupTimeSig:mean 	1.35
scalar Network.dyn_peer[311] 	lookupStabilitySig:mean 	0.5924769192934
scalar Network.dyn_peer[311] 	lookupHopsSig:mean 	12.75
scalar Network.dyn_peer[312] 	lookupTimeSig:mean 	1.3666666666667
scalar Network.dyn_peer[312] 	lookupStabilitySig:mean 	0.65929522365332
scalar Network.dyn_peer[312] 	lookupHopsSig:mean 	13
scalar Network.dyn_peer[313] 	lookupTimeSig:mean 	1.4
scalar Network.dyn_peer[313] 	lookupStabilitySig:mean 	0.31355220576127
scalar Network.dyn_peer[313] 	lookupHopsSig:mean 	13.333333333333
scalar Network.dyn_peer[314] 	lookupTimeSig:mean 	1.6875
scalar Network.dyn_peer[314] 	lookupStabilitySig:mean 	0.90982430893928
scalar Network.dyn_peer[314] 	lookupHopsSig:mean 	16
scalar Network.dyn_peer[315] 	lookupTimeSig:mean 	1.1
scalar Network.dyn_peer[315] 	lookupStabilitySig:mean 	-0.1388888657093
scalar Network.dyn_peer[315] 	lookupHopsSig:mean 	10.5
scalar Network.dyn_peer[316] 	lookupTimeSig:mean 	1.4666666666667
scalar Network.dyn_peer[316] 	lookupStabilitySig:mean 	0.20236634711425
scalar Network.dyn_peer[316] 	lookupHopsSig:mean 	14
scalar Network.dyn_peer[317] 	lookupTimeSig:mean 	1.66
scalar Network.dyn_peer[317] 	lookupStabilitySig:mean 	0.68091012686491
scalar Network.dyn_peer[317] 	lookupHopsSig:mean 	15.8
scalar Network.dyn_peer[318] 	lookupTimeSig:mean 	1.9666666666667
scalar Network.dyn_peer[318] 	lookupStabilitySig:mean 	0.94047924886561
scalar Network.dyn_peer[318] 	lookupHopsSig:mean 	18.777777777778
scalar Network.dyn_peer[319] 	lookupTimeSig:mean 	1.625
scalar Network.dyn_peer[319] 	lookupStabilitySig:mean 	0.49916366860271
scalar Network.dyn_peer[319] 	lookupHopsSig:mean 	15.5
scalar Network.dyn_peer[320] 	lookupTimeSig:mean 	2.1333333333333
scalar Network.dyn_peer[320] 	lookupStabilitySig:mean 	0.79410380870104
scalar Network.dyn_peer[320] 	lookupHopsSig:mean 	20.666666666667
scalar Network.dyn_peer[321] 	lookupTimeSig:mean 	1.02
scalar Network.dyn_peer[321] 	lookupStabilitySig:mean 	0.9127952054143
scalar Network.dyn_peer[321] 	lookupHopsSig:mean 	9.3
scalar Network.dyn_peer[322] 	lookupTimeSig:mean 	1.3166666666667
scalar Network.dyn_peer[322] 	lookupStabilitySig:mean 	0.56865353137255
scalar Network.dyn_peer[322] 	lookupHopsSig:mean 	12.333333333333
scalar Network.dyn_peer[323] 	lookupTimeSig:mean 	1.7
scalar Network.dyn_peer[323] 	lookupStabilitySig:mean 	0.74407121259719
scalar Network.dyn_peer[323] 	lookupHopsSig:mean 	16.25
scalar Network.dyn_peer[324] 	lookupTimeSig:mean 	0.95
scalar Network.dyn_peer[324] 	lookupStabilitySig:mean 	0.56919447612017
scalar Network.dyn_peer[324] 	lookupHopsSig:mean 	8.75
scalar Network.dyn_peer[325] 	lookupTimeSig:mean 	1.3727272727273
scalar Network.dyn_peer[325] 	lookupStabilitySig:mean 	0.93702838798477
scalar Network.dyn_peer[325] 	lookupHopsSig:mean 	12.818181818182
scalar Network.dyn_peer[326] 	lookupTimeSig:mean 	1.81
scalar Network.dyn_peer[326] 	lookupStabilitySig:mean 	0.92490299465135
scalar Network.dyn_peer[326] 	lookupHopsSig:mean 	17.2
scalar Network.dyn_peer[327] 	lookupTimeSig:mean 	1.5333333333333
scalar Network.dyn_peer[327] 	lookupStabilitySig:mean 	0.95471486066365
scalar Network.dyn_peer[327] 	lookupHopsSig:mean 	14.444444444444
scalar Network.dyn_peer[328] 	lookupTimeSig:mean 	1.325
scalar Network.dyn_peer[328] 	lookupStabilitySig:mean 	0.44971537031233
scalar Network.dyn_peer[328] 	lookupHopsSig:mean 	12.5
scalar Network.dyn_peer[329] 	lookupTimeSig:mean 	1.9
scalar Network.dyn_peer[329] 	lookupStabilitySig:mean 	0.21031748503447
scalar Network.dyn_peer[329] 	lookupHopsSig:mean 	18.5
scalar Network.dyn_peer[330] 	lookupTimeSig:mean 	1.575
scalar Network.dyn_peer[330] 	lookupStabilitySig:mean 	0.60387516766787
scalar Network.dyn_peer[330] 	lookupHopsSig:mean 	15
scalar Network.dyn_peer[331] 	lookupTimeSig:mean 	1.3333333333333
scalar Network.dyn_peer[331] 	lookupStabilitySig:mean 	0.58039061600963
scalar Network.dyn_peer[331] 	lookupHopsSig:mean 	12.666666666667
scalar Network.dyn_peer[332] 	lookupTimeSig:mean 	1.1666666666667
scalar Network.dyn_peer[332] 	lookupStabilitySig:mean 	0.76096032001078
scalar Network.dyn_peer[332] 	lookupHopsSig:mean 	10.777777777778
scalar Network.dyn_peer[333] 	lookupTimeSig:mean 	1.19
scalar Network.dyn_peer[333] 	lookupStabilitySig:mean 	0.81059150979854
scalar Network.dyn_peer[333] 	lookupHopsSig:mean 	11
scalar Network.dyn_peer[334] 	lookupTimeSig:mean 	1.6666666666667
scalar Network.dyn_peer[334] 	lookupStabilitySig:mean 	0.33561860521634
scalar Network.dyn_peer[334] 	lookupHopsSig:mean 	16
scalar Network.dyn_peer[335] 	lookupTimeSig:mean 	1.7333333333333
scalar Network.dyn_peer[335] 	lookupStabilitySig:mean 	0.5580672621727
scalar Network.dyn_peer[335] 	lookupHopsSig:mean 	16.666666666667
scalar Network.dyn_peer[336] 	lookupTimeSig:mean 	1.2285714285714
scalar Network.dyn_peer[336] 	lookupStabilitySig:mean 	0.74281906270023
scalar Network.dyn_peer[336] 	lookupHopsSig:mean 	11.428571428571
scalar Network.dyn_peer[337] 	lookupTimeSig:mean 	1.16
scalar Network.dyn_peer[337] 	lookupStabilitySig:mean 	0.48209344297647
scalar Network.dyn_peer[337] 	lookupHopsSig:mean 	10.8
scalar Network.dyn_peer[338] 	lookupTimeSig:mean 	1.9
scalar Network.dyn_peer[338] 	lookupStabilitySig:mean 	0.36071427166462
scalar Network.dyn_peer[338] 	lookupHopsSig:mean 	18.5
scalar Network.dyn_peer[339] 	lookupTimeSig:mean 	1.7333333333333
scalar Network.dyn_peer[339] 	lookupStabilitySig:mean 	0.85935068037361
scalar Network.dyn_peer[339] 	lookupHopsSig:mean 	16.5
scalar Network.dyn_peer[340] 	lookupTimeSig:mean 	1.08
scalar Network.dyn_peer[340] 	lookupStabilitySig:mean 	0.54231375157833
scalar Network.dyn_peer[340] 	lookupHopsSig:mean 	10
scalar Network.dyn_peer[341] 	lookupTimeSig:mean 	2.0285714285714
scalar Network.dyn_peer[341] 	lookupStabilitySig:mean 	0.90316593008382
scalar Network.dyn_peer[341] 	lookupHopsSig:mean 	19.428571428571
scalar Network.dyn_peer[342] 	lookupTimeSig:mean 	1.15
scalar Network.dyn_peer[342] 	lookupStabilitySig:mean 	0.8952808069298
scalar Network.dyn_peer[342] 	lookupHopsSig:mean 	10.625
scalar Network.dyn_peer[343] 	lookupTimeSig:mean 	1.775
scalar Network.dyn_peer[343] 	lookupStabilitySig:mean 	0.76137365400791
scalar Network.dyn_peer[343] 	lookupHopsSig:mean 	17
scalar Network.dyn_peer[344] 	lookupTimeSig:mean 	1.3
scalar Network.dyn_peer[344] 	lookupStabilitySig:mean 	0.69340499956161
scalar Network.dyn_peer[344] 	lookupHopsSig:mean 	12.25
scalar Network.dyn_peer[345] 	lookupTimeSig:mean 	1.3142857142857
scalar Network.dyn_peer[345] 	lookupStabilitySig:mean 	0.86521753402693
scalar Network.dyn_peer[345] 	lookupHopsSig:mean 	12.285714285714
scalar Network.dyn_peer[346] 	lookupTimeSig:mean 	1.1333333333333
scalar Network.dyn_peer[346] 	lookupStabilitySig:mean 	0.58825153609117
scalar Network.dyn_peer[346] 	lookupHopsSig:mean 	10.5
scalar Network.dyn_peer[347] 	lookupTimeSig:mean 	1.3
scalar Network.dyn_peer[347] 	lookupStabilitySig:mean 	0.92592254898045
scalar Network.dyn_peer[347] 	lookupHopsSig:mean 	12.125
scalar Network.dyn_peer[348] 	lookupTimeSig:mean 	2.1666666666667
scalar Network.dyn_peer[348] 	lookupStabilitySig:mean 	0.79412577797969
scalar Network.dyn_peer[348] 	lookupHopsSig:mean 	21
scalar Network.dyn_peer[349] 	lookupTimeSig:mean 	0.92
scalar Network.dyn_peer[349] 	lookupStabilitySig:mean 	0.4599878102541
scalar Network.dyn_peer[349] 	lookupHopsSig:mean 	8.4
scalar Network.dyn_peer[350] 	lookupTimeSig:mean 	2.85
scalar Network.dyn_peer[350] 	lookupStabilitySig:mean 	0.73796147480607
scalar Network.dyn_peer[350] 	lookupHopsSig:mean 	28
scalar Network.dyn_peer[351] 	lookupTimeSig:mean 	1.4111111111111
scalar Network.dyn_peer[351] 	lookupStabilitySig:mean 	0.90017673362874
scalar Network.dyn_peer[351] 	lookupHopsSig:mean 	13.222222222222
scalar Network.dyn_peer[352] 	lookupTimeSig:mean 	2.0888888888889
scalar Network.dyn_peer[352] 	lookupStabilitySig:mean 	0.94945738904385
scalar Network.dyn_peer[352] 	lookupHopsSig:mean 	20
scalar Network.dyn_peer[353] 	lookupTimeSig:mean 	2.2
scalar Network.dyn_peer[353] 	lookupStabilitySig:mean 	0.91542041432112
scalar Network.dyn_peer[353] 	lookupHopsSig:mean 	21.2
scalar Network.dyn_peer[354] 	lookupTimeSig:mean 	1.0571428571429
scalar Network.dyn_peer[354] 	lookupStabilitySig:mean 	0.85979860568685
scalar Network.dyn_peer[354] 	lookupHopsSig:mean 	9.7142857142857
scalar Network.dyn_peer[355] 	lookupTimeSig:mean 	0.85714285714286
scalar Network.dyn_peer[355] 	lookupStabilitySig:mean 	0.86292724098478
scalar Network.dyn_peer[355] 	lookupHopsSig:mean 	7.7142857142857
scalar Network.dyn_peer[356] 	lookupTimeSig:mean 	3.85
scalar Network.dyn_peer[356] 	lookupStabilitySig:mean 	0.22843820601702
scalar Network.dyn_peer[356] 	lookupHopsSig:mean 	38
scalar Network.dyn_peer[357] 	lookupTimeSig:mean 	0.825
scalar Network.dyn_peer[357] 	lookupStabilitySig:mean 	0.35103005170822
scalar Network.dyn_peer[357] 	lookupHopsSig:mean 	7.5
scalar Network.dyn_peer[358] 	lookupTimeSig:mean 	1.0222222222222
scalar Network.dyn_peer[358] 	lookupStabilitySig:mean 	0.69800522654421
scalar Network.dyn_peer[358] 	lookupHopsSig:mean 	9.3333333333333
scalar Network.dyn_peer[359] 	lookupTimeSig:mean 	1.3142857142857
scalar Network.dyn_peer[359] 	lookupStabilitySig:mean 	0.69491146238787
scalar Network.dyn_peer[359] 	lookupHopsSig:mean 	12.285714285714
scalar Network.dyn_peer[360] 	lookupTimeSig:mean 	1.5769230769231
scalar Network.dyn_peer[360] 	lookupStabilitySig:mean 	0.90494463854254
scalar Network.dyn_peer[360] 	lookupHopsSig:mean 	14.846153846154
scalar Network.dyn_peer[361] 	lookupTimeSig:mean 	1.525
scalar Network.dyn_peer[361] 	lookupStabilitySig:mean 	0.5465533118695
scalar Network.dyn_peer[361] 	lookupHopsSig:mean 	14.5
scalar Network.dyn_peer[362] 	lookupTimeSig:mean 	1.4
scalar Network.dyn_peer[362] 	lookupStabilitySig:mean 	0.69312880095094
scalar Network.dyn_peer[362] 	lookupHopsSig:mean 	13.25
scalar Network.dyn_peer[363] 	lookupTimeSig:mean 	0.96666666666667
scalar Network.dyn_peer[363] 	lookupStabilitySig:mean 	0.29001608490944
scalar Network.dyn_peer[363] 	lookupHopsSig:mean 	9
scalar Network.dyn_peer[364] 	lookupTimeSig:mean 	1.9428571428571
scalar Network.dyn_peer[364] 	lookupStabilitySig:mean 	0.90252455962556
scalar Network.dyn_peer[364] 	lookupHopsSig:mean 	18.571428571429
scalar Network.dyn_peer[365] 	lookupTimeSig:mean 	1.2142857142857
scalar Network.dyn_peer[365] 	lookupStabilitySig:mean 	0.85304382736129
scalar Network.dyn_peer[365] 	lookupHopsSig:mean 	11.285714285714
scalar Network.dyn_peer[366] 	lookupTimeSig:mean 	2.5
scalar Network.dyn_peer[366] 	lookupStabilitySig:mean 	0.65442654490471
scalar Network.dyn_peer[366] 	lookupHopsSig:mean 	24.5
scalar Network.dyn_peer[367] 	lookupTimeSig:mean 	2.68
scalar Network.dyn_peer[367] 	lookupStabilitySig:mean 	0.82555086165667
scalar Network.dyn_peer[367] 	lookupHopsSig:mean 	26
scalar Network.dyn_peer[368] 	lookupTimeSig:mean 	0.9
scalar Network.dyn_peer[368] 	lookupStabilitySig:mean 	0.73593851405894
scalar Network.dyn_peer[368] 	lookupHopsSig:mean 	8.125
scalar Network.dyn_peer[369] 	lookupTimeSig:mean 	1.825
scalar Network.dyn_peer[369] 	lookupStabilitySig:mean 	0.88300494290888
scalar Network.dyn_peer[369] 	lookupHopsSig:mean 	17.5
scalar Network.dyn_peer[370] 	lookupTimeSig:mean 	2.0571428571429
scalar Network.dyn_peer[370] 	lookupStabilitySig:mean 	0.91942755651793
scalar Network.dyn_peer[370] 	lookupHopsSig:mean 	19.714285714286
scalar Network.dyn_peer[371] 	lookupTimeSig:mean 	2.025
scalar Network.dyn_peer[371] 	lookupStabilitySig:mean 	0.75998842157423
scalar Network.dyn_peer[371] 	lookupHopsSig:mean 	19.5
scalar Network.dyn_peer[372] 	lookupTimeSig:mean 	1.0222222222222
scalar Network.dyn_peer[372] 	lookupStabilitySig:mean 	0.83170709691735
scalar Network.dyn_peer[372] 	lookupHopsSig:mean 	9.3333333333333
scalar Network.dyn_peer[373] 	lookupTimeSig:mean 	1.4
scalar Network.dyn_peer[373] 	lookupStabilitySig:mean 	-0.10805858671665
scalar Network.dyn_peer[373] 	lookupHopsSig:mean 	13.5
scalar Network.dyn_peer[374] 	lookupTimeSig:mean 	1.72
scalar Network.dyn_peer[374] 	lookupStabilitySig:mean 	0.86363700181246
scalar Network.dyn_peer[374] 	lookupHopsSig:mean 	16.4
scalar Network.dyn_peer[375] 	lookupTimeSig:mean 	2.14
scalar Network.dyn_peer[375] 	lookupStabilitySig:mean 	0.92635005973279
scalar Network.dyn_peer[375] 	lookupHopsSig:mean 	20.6
scalar Network.dyn_peer[376] 	lookupTimeSig:mean 	1.5555555555556
scalar Network.dyn_peer[376] 	lookupStabilitySig:mean 	0.95053928671405
scalar Network.dyn_peer[376] 	lookupHopsSig:mean 	14.666666666667
scalar Network.dyn_peer[377] 	lookupTimeSig:mean 	1.0125
scalar Network.dyn_peer[377] 	lookupStabilitySig:mean 	0.82516218081582
scalar Network.dyn_peer[377] 	lookupHopsSig:mean 	9.25
scalar Network.dyn_peer[378] 	lookupTimeSig:mean 	2.05
scalar Network.dyn_peer[378] 	lookupStabilitySig:mean 	0.10072688013315
scalar Network.dyn_peer[378] 	lookupHopsSig:mean 	20
scalar Network.dyn_peer[379] 	lookupTimeSig:mean 	2.0142857142857
scalar Network.dyn_peer[379] 	lookupStabilitySig:mean 	0.76191910582462
scalar Network.dyn_peer[379] 	lookupHopsSig:mean 	19.285714285714
scalar Network.dyn_peer[380] 	lookupTimeSig:mean 	1.2636363636364
scalar Network.dyn_peer[380] 	lookupStabilitySig:mean 	0.93361753115261
scalar Network.dyn_peer[380] 	lookupHopsSig:mean 	11.727272727273
scalar Network.dyn_peer[381] 	lookupTimeSig:mean 	2.35
scalar Network.dyn_peer[381] 	lookupStabilitySig:mean 	0.79930049926043
scalar Network.dyn_peer[381] 	lookupHopsSig:mean 	22.75
scalar Network.dyn_peer[382] 	lookupTimeSig:mean 	1.42
scalar Network.dyn_peer[382] 	lookupStabilitySig:mean 	0.89102426217869
scalar Network.dyn_peer[382] 	lookupHopsSig:mean 	13.3
scalar Network.dyn_peer[383] 	lookupTimeSig:mean 	1.9428571428571
scalar Network.dyn_peer[383] 	lookupStabilitySig:mean 	0.8920804677265
scalar Network.dyn_peer[383] 	lookupHopsSig:mean 	18.571428571429
scalar Network.dyn_peer[384] 	lookupTimeSig:mean 	0.9
scalar Network.dyn_peer[384] 	lookupStabilitySig:mean 	0.78891443379689
scalar Network.dyn_peer[384] 	lookupHopsSig:mean 	8.125
scalar Network.dyn_peer[385] 	lookupTimeSig:mean 	2.8
scalar Network.dyn_peer[385] 	lookupStabilitySig:mean 	0.79459691606462
scalar Network.dyn_peer[385] 	lookupHopsSig:mean 	27.25
scalar Network.dyn_peer[386] 	lookupTimeSig:mean 	1.025
scalar Network.dyn_peer[386] 	lookupStabilitySig:mean 	0.68606670567533
scalar Network.dyn_peer[386] 	lookupHopsSig:mean 	9.375
scalar Network.dyn_peer[387] 	lookupTimeSig:mean 	1.25
scalar Network.dyn_peer[387] 	lookupStabilitySig:mean 	0.95158035853612
scalar Network.dyn_peer[387] 	lookupHopsSig:mean 	11.571428571429
scalar Network.dyn_peer[388] 	lookupTimeSig:mean 	2.4
scalar Network.dyn_peer[388] 	lookupStabilitySig:mean 	0.91019598133862
scalar Network.dyn_peer[388] 	lookupHopsSig:mean 	23.2
scalar Network.dyn_peer[389] 	lookupTimeSig:mean 	2.45
scalar Network.dyn_peer[389] 	lookupStabilitySig:mean 	0.62264879047871
scalar Network.dyn_peer[389] 	lookupHopsSig:mean 	24
scalar Network.dyn_peer[390] 	lookupTimeSig:mean 	2.15
scalar Network.dyn_peer[390] 	lookupStabilitySig:mean 	0.93855950019012
scalar Network.dyn_peer[390] 	lookupHopsSig:mean 	20.666666666667
scalar Network.dyn_peer[391] 	lookupTimeSig:mean 	1.05
scalar Network.dyn_peer[391] 	lookupStabilitySig:mean 	0.56033132784069
scalar Network.dyn_peer[391] 	lookupHopsSig:mean 	9.75
scalar Network.dyn_peer[392] 	lookupTimeSig:mean 	2.5
scalar Network.dyn_peer[392] 	lookupStabilitySig:mean 	0.73518237719933
scalar Network.dyn_peer[392] 	lookupHopsSig:mean 	24.333333333333
scalar Network.dyn_peer[393] 	lookupTimeSig:mean 	1.575
scalar Network.dyn_peer[393] 	lookupStabilitySig:mean 	0.94997844344471
scalar Network.dyn_peer[393] 	lookupHopsSig:mean 	14.875
scalar Network.dyn_peer[394] 	lookupTimeSig:mean 	1.35
scalar Network.dyn_peer[394] 	lookupStabilitySig:mean 	0.63233623374254
scalar Network.dyn_peer[394] 	lookupHopsSig:mean 	12.75
scalar Network.dyn_peer[395] 	lookupTimeSig:mean 	3.25
scalar Network.dyn_peer[395] 	lookupStabilitySig:mean 	0.21159418672323
scalar Network.dyn_peer[395] 	lookupHopsSig:mean 	32
scalar Network.dyn_peer[396] 	lookupTimeSig:mean 	1.1785714285714
scalar Network.dyn_peer[396] 	lookupStabilitySig:mean 	0.93015226099773
scalar Network.dyn_peer[396] 	lookupHopsSig:mean 	10.857142857143
scalar Network.dyn_peer[397] 	lookupTimeSig:mean 	4.65
scalar Network.dyn_peer[397] 	lookupStabilitySig:mean 	0.28662484139204
scalar Network.dyn_peer[397] 	lookupHopsSig:mean 	46
scalar Network.dyn_peer[398] 	lookupTimeSig:mean 	1.3666666666667
scalar Network.dyn_peer[398] 	lookupStabilitySig:mean 	0.22085793316364
scalar Network.dyn_peer[398] 	lookupHopsSig:mean 	13
scalar Network.dyn_peer[399] 	lookupTimeSig:mean 	1
scalar Network.dyn_peer[399] 	lookupStabilitySig:mean 	0.76746939122677
scalar Network.dyn_peer[399] 	lookupHopsSig:mean 	9.1666666666667
scalar Network.dyn_peer[400] 	lookupTimeSig:mean 	2.1333333333333
scalar Network.dyn_peer[400] 	lookupStabilitySig:mean 	0.93619894127672
scalar Network.dyn_peer[400] 	lookupHopsSig:mean 	20.5
scalar Network.dyn_peer[401] 	lookupTimeSig:mean 	2.3
scalar Network.dyn_peer[401] 	lookupStabilitySig:mean 	0.83703076932579
scalar Network.dyn_peer[401] 	lookupHopsSig:mean 	22.25
scalar Network.dyn_peer[402] 	lookupTimeSig:mean 	2.15
scalar Network.dyn_peer[402] 	lookupStabilitySig:mean 	0.75334261916578
scalar Network.dyn_peer[402] 	lookupHopsSig:mean 	20.75
scalar Network.dyn_peer[403] 	lookupTimeSig:mean 	1.5571428571429
scalar Network.dyn_peer[403] 	lookupStabilitySig:mean 	0.78677277160542
scalar Network.dyn_peer[403] 	lookupHopsSig:mean 	14.714285714286
scalar Network.dyn_peer[404] 	lookupTimeSig:mean 	4.2
scalar Network.dyn_peer[404] 	lookupStabilitySig:mean 	0.47499999403954
scalar Network.dyn_peer[404] 	lookupHopsSig:mean 	41.5
scalar Network.dyn_peer[405] 	lookupTimeSig:mean 	1.4333333333333
scalar Network.dyn_peer[405] 	lookupStabilitySig:mean 	0.16844729334116
scalar Network.dyn_peer[405] 	lookupHopsSig:mean 	13.666666666667
scalar Network.dyn_peer[406] 	lookupTimeSig:mean 	1.575
scalar Network.dyn_peer[406] 	lookupStabilitySig:mean 	0.64250417146832
scalar Network.dyn_peer[406] 	lookupHopsSig:mean 	15
scalar Network.dyn_peer[407] 	lookupTimeSig:mean 	1.1166666666667
scalar Network.dyn_peer[407] 	lookupStabilitySig:mean 	0.85351310763508
scalar Network.dyn_peer[407] 	lookupHopsSig:mean 	10.25
scalar Network.dyn_peer[408] 	lookupTimeSig:mean 	1.4714285714286
scalar Network.dyn_peer[408] 	lookupStabilitySig:mean 	0.88065777798848
scalar Network.dyn_peer[408] 	lookupHopsSig:mean 	13.857142857143
scalar Network.dyn_peer[409] 	lookupTimeSig:mean 	1.2
scalar Network.dyn_peer[409] 	lookupStabilitySig:mean 	0.91368693570522
scalar Network.dyn_peer[409] 	lookupHopsSig:mean 	11.090909090909
scalar Network.dyn_peer[410] 	lookupTimeSig:mean 	3.45
scalar Network.dyn_peer[410] 	lookupStabilitySig:mean 	0.64786966890097
scalar Network.dyn_peer[410] 	lookupHopsSig:mean 	34
scalar Network.dyn_peer[411] 	lookupTimeSig:mean 	1.4636363636364
scalar Network.dyn_peer[411] 	lookupStabilitySig:mean 	0.92675312676213
scalar Network.dyn_peer[411] 	lookupHopsSig:mean 	13.727272727273
scalar Network.dyn_peer[412] 	lookupTimeSig:mean 	1.175
scalar Network.dyn_peer[412] 	lookupStabilitySig:mean 	0.43062217906117
scalar Network.dyn_peer[412] 	lookupHopsSig:mean 	11
scalar Network.dyn_peer[413] 	lookupTimeSig:mean 	1.025
scalar Network.dyn_peer[413] 	lookupStabilitySig:mean 	0.50384273193777
scalar Network.dyn_peer[413] 	lookupHopsSig:mean 	9.5
scalar Network.dyn_peer[414] 	lookupTimeSig:mean 	2.1
scalar Network.dyn_peer[414] 	lookupStabilitySig:mean 	0.74632244743407
scalar Network.dyn_peer[414] 	lookupHopsSig:mean 	20.25
scalar Network.dyn_peer[415] 	lookupTimeSig:mean 	1.9571428571429
scalar Network.dyn_peer[415] 	lookupStabilitySig:mean 	0.78337518870831
scalar Network.dyn_peer[415] 	lookupHopsSig:mean 	18.714285714286
scalar Network.dyn_peer[416] 	lookupTimeSig:mean 	1.3888888888889
scalar Network.dyn_peer[416] 	lookupStabilitySig:mean 	0.8923604208976
scalar Network.dyn_peer[416] 	lookupHopsSig:mean 	13
scalar Network.dyn_peer[417] 	lookupTimeSig:mean 	2.1
scalar Network.dyn_peer[417] 	lookupStabilitySig:mean 	0.43499965469042
scalar Network.dyn_peer[417] 	lookupHopsSig:mean 	20.333333333333
scalar Network.dyn_peer[418] 	lookupTimeSig:mean 	0.97777777777778
scalar Network.dyn_peer[418] 	lookupStabilitySig:mean 	0.88791521866288
scalar Network.dyn_peer[418] 	lookupHopsSig:mean 	8.8888888888889
scalar Network.dyn_peer[419] 	lookupTimeSig:mean 	0.95
scalar Network.dyn_peer[419] 	lookupStabilitySig:mean 	0.49094880744815
scalar Network.dyn_peer[419] 	lookupHopsSig:mean 	8.75
scalar Network.dyn_peer[420] 	lookupTimeSig:mean 	2.2
scalar Network.dyn_peer[420] 	lookupStabilitySig:mean 	0.55918221920729
scalar Network.dyn_peer[420] 	lookupHopsSig:mean 	21.5
scalar Network.dyn_peer[421] 	lookupTimeSig:mean 	1.1857142857143
scalar Network.dyn_peer[421] 	lookupStabilitySig:mean 	0.75738523128842
scalar Network.dyn_peer[421] 	lookupHopsSig:mean 	11
scalar Network.dyn_peer[422] 	lookupTimeSig:mean 	1.2333333333333
scalar Network.dyn_peer[422] 	lookupStabilitySig:mean 	0.41575349370639
scalar Network.dyn_peer[422] 	lookupHopsSig:mean 	11.666666666667
scalar Network.dyn_peer[423] 	lookupTimeSig:mean 	1.45
[...]
scalar Network.dyn_peer[883] 	lookupTimeSig:mean 	-nan
scalar Network.dyn_peer[883] 	lookupStabilitySig:mean 	-nan
scalar Network.dyn_peer[883] 	lookupHopsSig:mean 	-nan
scalar Network.dyn_peer[884] 	lookupTimeSig:mean 	-nan
scalar Network.dyn_peer[884] 	lookupStabilitySig:mean 	-nan
scalar Network.dyn_peer[884] 	lookupHopsSig:mean 	-nan
scalar Network.dyn_peer[885] 	lookupTimeSig:mean 	-nan
scalar Network.dyn_peer[885] 	lookupStabilitySig:mean 	-nan
scalar Network.dyn_peer[885] 	lookupHopsSig:mean 	-nan
scalar Network.dyn_peer[886] 	lookupTimeSig:mean 	-nan
scalar Network.dyn_peer[886] 	lookupStabilitySig:mean 	-nan
scalar Network.dyn_peer[886] 	lookupHopsSig:mean 	-nan
scalar Network.dyn_peer[887] 	lookupTimeSig:mean 	-nan
scalar Network.dyn_peer[887] 	lookupStabilitySig:mean 	-nan
scalar Network.dyn_peer[887] 	lookupHopsSig:mean 	-nan
scalar Network.dyn_peer[888] 	lookupTimeSig:mean 	-nan
scalar Network.dyn_peer[888] 	lookupStabilitySig:mean 	-nan
scalar Network.dyn_peer[888] 	lookupHopsSig:mean 	-nan
scalar Network.dyn_peer[889] 	lookupTimeSig:mean 	-nan
scalar Network.dyn_peer[889] 	lookupStabilitySig:mean 	-nan
scalar Network.dyn_peer[889] 	lookupHopsSig:mean 	-nan
scalar Network.dyn_peer[890] 	lookupTimeSig:mean 	-nan
scalar Network.dyn_peer[890] 	lookupStabilitySig:mean 	-nan
scalar Network.dyn_peer[890] 	lookupHopsSig:mean 	-nan
scalar Network.dyn_peer[891] 	lookupTimeSig:mean 	-nan
scalar Network.dyn_peer[891] 	lookupStabilitySig:mean 	-nan
scalar Network.dyn_peer[891] 	lookupHopsSig:mean 	-nan
scalar Network.dyn_peer[892] 	lookupTimeSig:mean 	-nan
scalar Network.dyn_peer[892] 	lookupStabilitySig:mean 	-nan
scalar Network.dyn_peer[892] 	lookupHopsSig:mean 	-nan
scalar Network.dyn_peer[893] 	lookupTimeSig:mean 	-nan
scalar Network.dyn_peer[893] 	lookupStabilitySig:mean 	-nan
scalar Network.dyn_peer[893] 	lookupHopsSig:mean 	-nan
scalar Network.dyn_peer[894] 	lookupTimeSig:mean 	-nan
scalar Network.dyn_peer[894] 	lookupStabilitySig:mean 	-nan
scalar Network.dyn_peer[894] 	lookupHopsSig:mean 	-nan
scalar Network.dyn_peer[895] 	lookupTimeSig:mean 	-nan
scalar Network.dyn_peer[895] 	lookupStabilitySig:mean 	-nan
scalar Network.dyn_peer[895] 	lookupHopsSig:mean 	-nan
scalar Network.dyn_peer[896] 	lookupTimeSig:mean 	-nan
scalar Network.dyn_peer[896] 	lookupStabilitySig:mean 	-nan
scalar Network.dyn_peer[896] 	lookupHopsSig:mean 	-nan
scalar Network.dyn_peer[897] 	lookupTimeSig:mean 	-nan
scalar Network.dyn_peer[897] 	lookupStabilitySig:mean 	-nan
scalar Network.dyn_peer[897] 	lookupHopsSig:mean 	-nan
scalar Network.dyn_peer[898] 	lookupTimeSig:mean 	-nan
scalar Network.dyn_peer[898] 	lookupStabilitySig:mean 	-nan
scalar Network.dyn_peer[898] 	lookupHopsSig:mean 	-nan
scalar Network.dyn_peer[899] 	lookupTimeSig:mean 	-nan
scalar Network.dyn_peer[899] 	lookupStabilitySig:mean 	-nan
scalar Network.dyn_peer[899] 	lookupHopsSig:mean 	-nan
scalar Network.dyn_peer[900] 	lookupTimeSig:mean 	-nan
scalar Network.dyn_peer[900] 	lookupStabilitySig:mean 	-nan
scalar Network.dyn_peer[900] 	lookupHopsSig:mean 	-nan
scalar Network.dyn_peer[901] 	lookupTimeSig:mean 	-nan
scalar Network.dyn_peer[901] 	lookupStabilitySig:mean 	-nan
scalar Network.dyn_peer[901] 	lookupHopsSig:mean 	-nan
scalar Network.dyn_peer[902] 	lookupTimeSig:mean 	-nan
scalar Network.dyn_peer[902] 	lookupStabilitySig:mean 	-nan
scalar Network.dyn_peer[902] 	lookupHopsSig:mean 	-nan
scalar Network.dyn_peer[903] 	lookupTimeSig:mean 	-nan
scalar Network.dyn_peer[903] 	lookupStabilitySig:mean 	-nan
scalar Network.dyn_peer[903] 	lookupHopsSig:mean 	-nan
scalar Network.dyn_peer[904] 	lookupTimeSig:mean 	-nan
scalar Network.dyn_peer[904] 	lookupStabilitySig:mean 	-nan
scalar Network.dyn_peer[904] 	lookupHopsSig:mean 	-nan
scalar Network.dyn_peer[905] 	lookupTimeSig:mean 	-nan
scalar Network.dyn_peer[905] 	lookupStabilitySig:mean 	-nan
scalar Network.dyn_peer[905] 	lookupHopsSig:mean 	-nan
scalar Network.dyn_peer[906] 	lookupTimeSig:mean 	-nan
scalar Network.dyn_peer[906] 	lookupStabilitySig:mean 	-nan
scalar Network.dyn_peer[906] 	lookupHopsSig:mean 	-nan
scalar Network.dyn_peer[907] 	lookupTimeSig:mean 	-nan
scalar Network.dyn_peer[907] 	lookupStabilitySig:mean 	-nan
scalar Network.dyn_peer[907] 	lookupHopsSig:mean 	-nan
scalar Network.dyn_peer[908] 	lookupTimeSig:mean 	-nan
scalar Network.dyn_peer[908] 	lookupStabilitySig:mean 	-nan
scalar Network.dyn_peer[908] 	lookupHopsSig:mean 	-nan
scalar Network.dyn_peer[909] 	lookupTimeSig:mean 	-nan
scalar Network.dyn_peer[909] 	lookupStabilitySig:mean 	-nan
scalar Network.dyn_peer[909] 	lookupHopsSig:mean 	-nan
scalar Network.dyn_peer[910] 	lookupTimeSig:mean 	-nan
scalar Network.dyn_peer[910] 	lookupStabilitySig:mean 	-nan
scalar Network.dyn_peer[910] 	lookupHopsSig:mean 	-nan
scalar Network.dyn_peer[911] 	lookupTimeSig:mean 	-nan
scalar Network.dyn_peer[911] 	lookupStabilitySig:mean 	-nan
scalar Network.dyn_peer[911] 	lookupHopsSig:mean 	-nan
scalar Network.dyn_peer[912] 	lookupTimeSig:mean 	-nan
scalar Network.dyn_peer[912] 	lookupStabilitySig:mean 	-nan
scalar Network.dyn_peer[912] 	lookupHopsSig:mean 	-nan
scalar Network.dyn_peer[913] 	lookupTimeSig:mean 	-nan
scalar Network.dyn_peer[913] 	lookupStabilitySig:mean 	-nan
scalar Network.dyn_peer[913] 	lookupHopsSig:mean 	-nan
scalar Network.dyn_peer[914] 	lookupTimeSig:mean 	-nan
scalar Network.dyn_peer[914] 	lookupStabilitySig:mean 	-nan
scalar Network.dyn_peer[914] 	lookupHopsSig:mean 	-nan
scalar Network.dyn_peer[915] 	lookupTimeSig:mean 	-nan
scalar Network.dyn_peer[915] 	lookupStabilitySig:mean 	-nan
scalar Network.dyn_peer[915] 	lookupHopsSig:mean 	-nan
scalar Network.dyn_peer[916] 	lookupTimeSig:mean 	-nan
scalar Network.dyn_peer[916] 	lookupStabilitySig:mean 	-nan
scalar Network.dyn_peer[916] 	lookupHopsSig:mean 	-nan
scalar Network.dyn_peer[917] 	lookupTimeSig:mean 	-nan
scalar Network.dyn_peer[917] 	lookupStabilitySig:mean 	-nan
scalar Network.dyn_peer[917] 	lookupHopsSig:mean 	-nan
scalar Network.dyn_peer[918] 	lookupTimeSig:mean 	-nan
scalar Network.dyn_peer[918] 	lookupStabilitySig:mean 	-nan
scalar Network.dyn_peer[918] 	lookupHopsSig:mean 	-nan
scalar Network.dyn_peer[919] 	lookupTimeSig:mean 	-nan
scalar Network.dyn_peer[919] 	lookupStabilitySig:mean 	-nan
scalar Network.dyn_peer[919] 	lookupHopsSig:mean 	-nan
scalar Network.dyn_peer[920] 	lookupTimeSig:mean 	-nan
scalar Network.dyn_peer[920] 	lookupStabilitySig:mean 	-nan
scalar Network.dyn_peer[920] 	lookupHopsSig:mean 	-nan
scalar Network.dyn_peer[921] 	lookupTimeSig:mean 	-nan
scalar Network.dyn_peer[921] 	lookupStabilitySig:mean 	-nan
scalar Network.dyn_peer[921] 	lookupHopsSig:mean 	-nan
scalar Network.dyn_peer[922] 	lookupTimeSig:mean 	-nan
scalar Network.dyn_peer[922] 	lookupStabilitySig:mean 	-nan
scalar Network.dyn_peer[922] 	lookupHopsSig:mean 	-nan
scalar Network.dyn_peer[923] 	lookupTimeSig:mean 	-nan
scalar Network.dyn_peer[923] 	lookupStabilitySig:mean 	-nan
scalar Network.dyn_peer[923] 	lookupHopsSig:mean 	-nan
scalar Network.dyn_peer[924] 	lookupTimeSig:mean 	-nan
scalar Network.dyn_peer[924] 	lookupStabilitySig:mean 	-nan
scalar Network.dyn_peer[924] 	lookupHopsSig:mean 	-nan
scalar Network.dyn_peer[925] 	lookupTimeSig:mean 	-nan
scalar Network.dyn_peer[925] 	lookupStabilitySig:mean 	-nan
scalar Network.dyn_peer[925] 	lookupHopsSig:mean 	-nan
scalar Network.dyn_peer[926] 	lookupTimeSig:mean 	-nan
scalar Network.dyn_peer[926] 	lookupStabilitySig:mean 	-nan
scalar Network.dyn_peer[926] 	lookupHopsSig:mean 	-nan
scalar Network.dyn_peer[927] 	lookupTimeSig:mean 	-nan
scalar Network.dyn_peer[927] 	lookupStabilitySig:mean 	-nan
scalar Network.dyn_peer[927] 	lookupHopsSig:mean 	-nan
scalar Network.dyn_peer[928] 	lookupTimeSig:mean 	-nan
scalar Network.dyn_peer[928] 	lookupStabilitySig:mean 	-nan
scalar Network.dyn_peer[928] 	lookupHopsSig:mean 	-nan
scalar Network.dyn_peer[929] 	lookupTimeSig:mean 	-nan
scalar Network.dyn_peer[929] 	lookupStabilitySig:mean 	-nan
scalar Network.dyn_peer[929] 	lookupHopsSig:mean 	-nan
scalar Network.dyn_peer[930] 	lookupTimeSig:mean 	-nan
scalar Network.dyn_peer[930] 	lookupStabilitySig:mean 	-nan
scalar Network.dyn_peer[930] 	lookupHopsSig:mean 	-nan
scalar Network.dyn_peer[931] 	lookupTimeSig:mean 	-nan
scalar Network.dyn_peer[931] 	lookupStabilitySig:mean 	-nan
scalar Network.dyn_peer[931] 	lookupHopsSig:mean 	-nan
scalar Network.dyn_peer[932] 	lookupTimeSig:mean 	-nan
scalar Network.dyn_peer[932] 	lookupStabilitySig:mean 	-nan
scalar Network.dyn_peer[932] 	lookupHopsSig:mean 	-nan
scalar Network.dyn_peer[933] 	lookupTimeSig:mean 	-nan
scalar Network.dyn_peer[933] 	lookupStabilitySig:mean 	-nan
scalar Network.dyn_peer[933] 	lookupHopsSig:mean 	-nan
scalar Network.dyn_peer[934] 	lookupTimeSig:mean 	-nan
scalar Network.dyn_peer[934] 	lookupStabilitySig:mean 	-nan
scalar Network.dyn_peer[934] 	lookupHopsSig:mean 	-nan
scalar Network.dyn_peer[935] 	lookupTimeSig:mean 	-nan
scalar Network.dyn_peer[935] 	lookupStabilitySig:mean 	-nan
scalar Network.dyn_peer[935] 	lookupHopsSig:mean 	-nan
scalar Network.dyn_peer[936] 	lookupTimeSig:mean 	-nan
scalar Network.dyn_peer[936] 	lookupStabilitySig:mean 	-nan
scalar Network.dyn_peer[936] 	lookupHopsSig:mean 	-nan
scalar Network.dyn_peer[937] 	lookupTimeSig:mean 	-nan
scalar Network.dyn_peer[937] 	lookupStabilitySig:mean 	-nan
scalar Network.dyn_peer[937] 	lookupHopsSig:mean 	-nan
scalar Network.dyn_peer[938] 	lookupTimeSig:mean 	-nan
scalar Network.dyn_peer[938] 	lookupStabilitySig:mean 	-nan
scalar Network.dyn_peer[938] 	lookupHopsSig:mean 	-nan
scalar Network.dyn_peer[939] 	lookupTimeSig:mean 	-nan
scalar Network.dyn_peer[939] 	lookupStabilitySig:mean 	-nan
scalar Network.dyn_peer[939] 	lookupHopsSig:mean 	-nan
scalar Network.dyn_peer[940] 	lookupTimeSig:mean 	-nan
scalar Network.dyn_peer[940] 	lookupStabilitySig:mean 	-nan
scalar Network.dyn_peer[940] 	lookupHopsSig:mean 	-nan
scalar Network.dyn_peer[941] 	lookupTimeSig:mean 	-nan
scalar Network.dyn_peer[941] 	lookupStabilitySig:mean 	-nan
scalar Network.dyn_peer[941] 	lookupHopsSig:mean 	-nan
scalar Network.dyn_peer[942] 	lookupTimeSig:mean 	-nan
scalar Network.dyn_peer[942] 	lookupStabilitySig:mean 	-nan
scalar Network.dyn_peer[942] 	lookupHopsSig:mean 	-nan
scalar Network.dyn_peer[943] 	lookupTimeSig:mean 	-nan
scalar Network.dyn_peer[943] 	lookupStabilitySig:mean 	-nan
scalar Network.dyn_peer[943] 	lookupHopsSig:mean 	-nan
scalar Network.dyn_peer[944] 	lookupTimeSig:mean 	-nan
scalar Network.dyn_peer[944] 	lookupStabilitySig:mean 	-nan
scalar Network.dyn_peer[944] 	lookupHopsSig:mean 	-nan
scalar Network.dyn_peer[945] 	lookupTimeSig:mean 	-nan
scalar Network.dyn_peer[945] 	lookupStabilitySig:mean 	-nan
scalar Network.dyn_peer[945] 	lookupHopsSig:mean 	-nan
scalar Network.dyn_peer[946] 	lookupTimeSig:mean 	-nan
scalar Network.dyn_peer[946] 	lookupStabilitySig:mean 	-nan
scalar Network.dyn_peer[946] 	lookupHopsSig:mean 	-nan
scalar Network.dyn_peer[947] 	lookupTimeSig:mean 	-nan
scalar Network.dyn_peer[947] 	lookupStabilitySig:mean 	-nan
scalar Network.dyn_peer[947] 	lookupHopsSig:mean 	-nan
scalar Network.dyn_peer[948] 	lookupTimeSig:mean 	-nan
scalar Network.dyn_peer[948] 	lookupStabilitySig:mean 	-nan
scalar Network.dyn_peer[948] 	lookupHopsSig:mean 	-nan
scalar Network.dyn_peer[949] 	lookupTimeSig:mean 	-nan
scalar Network.dyn_peer[949] 	lookupStabilitySig:mean 	-nan
scalar Network.dyn_peer[949] 	lookupHopsSig:mean 	-nan
scalar Network.dyn_peer[950] 	lookupTimeSig:mean 	-nan
scalar Network.dyn_peer[950] 	lookupStabilitySig:mean 	-nan
scalar Network.dyn_peer[950] 	lookupHopsSig:mean 	-nan
scalar Network.dyn_peer[951] 	lookupTimeSig:mean 	-nan
scalar Network.dyn_peer[951] 	lookupStabilitySig:mean 	-nan
scalar Network.dyn_peer[951] 	lookupHopsSig:mean 	-nan
scalar Network.dyn_peer[952] 	lookupTimeSig:mean 	-nan
scalar Network.dyn_peer[952] 	lookupStabilitySig:mean 	-nan
scalar Network.dyn_peer[952] 	lookupHopsSig:mean 	-nan
scalar Network.dyn_peer[953] 	lookupTimeSig:mean 	-nan
scalar Network.dyn_peer[953] 	lookupStabilitySig:mean 	-nan
scalar Network.dyn_peer[953] 	lookupHopsSig:mean 	-nan
scalar Network.dyn_peer[954] 	lookupTimeSig:mean 	-nan
scalar Network.dyn_peer[954] 	lookupStabilitySig:mean 	-nan
scalar Network.dyn_peer[954] 	lookupHopsSig:mean 	-nan
scalar Network.dyn_peer[955] 	lookupTimeSig:mean 	-nan
scalar Network.dyn_peer[955] 	lookupStabilitySig:mean 	-nan
scalar Network.dyn_peer[955] 	lookupHopsSig:mean 	-nan
scalar Network.dyn_peer[956] 	lookupTimeSig:mean 	-nan
scalar Network.dyn_peer[956] 	lookupStabilitySig:mean 	-nan
scalar Network.dyn_peer[956] 	lookupHopsSig:mean 	-nan
scalar Network.dyn_peer[957] 	lookupTimeSig:mean 	-nan
scalar Network.dyn_peer[957] 	lookupStabilitySig:mean 	-nan
scalar Network.dyn_peer[957] 	lookupHopsSig:mean 	-nan
scalar Network.dyn_peer[958] 	lookupTimeSig:mean 	-nan
scalar Network.dyn_peer[958] 	lookupStabilitySig:mean 	-nan
scalar Network.dyn_peer[958] 	lookupHopsSig:mean 	-nan
scalar Network.dyn_peer[959] 	lookupTimeSig:mean 	-nan
scalar Network.dyn_peer[959] 	lookupStabilitySig:mean 	-nan
scalar Network.dyn_peer[959] 	lookupHopsSig:mean 	-nan
scalar Network.dyn_peer[960] 	lookupTimeSig:mean 	-nan
scalar Network.dyn_peer[960] 	lookupStabilitySig:mean 	-nan
scalar Network.dyn_peer[960] 	lookupHopsSig:mean 	-nan
scalar Network.dyn_peer[961] 	lookupTimeSig:mean 	-nan
scalar Network.dyn_peer[961] 	lookupStabilitySig:mean 	-nan
scalar Network.dyn_peer[961] 	lookupHopsSig:mean 	-nan
scalar Network.dyn_peer[962] 	lookupTimeSig:mean 	-nan
scalar Network.dyn_peer[962] 	lookupStabilitySig:mean 	-nan
scalar Network.dyn_peer[962] 	lookupHopsSig:mean 	-nan
scalar Network.dyn_peer[963] 	lookupTimeSig:mean 	-nan
scalar Network.dyn_peer[963] 	lookupStabilitySig:mean 	-nan
scalar Network.dyn_peer[963] 	lookupHopsSig:mean 	-nan
scalar Network.dyn_peer[964] 	lookupTimeSig:mean 	-nan
scalar Network.dyn_peer[964] 	lookupStabilitySig:mean 	-nan
scalar Network.dyn_peer[964] 	lookupHopsSig:mean 	-nan
scalar Network.dyn_peer[965] 	lookupTimeSig:mean 	-nan
scalar Network.dyn_peer[965] 	lookupStabilitySig:mean 	-nan
scalar Network.dyn_peer[965] 	lookupHopsSig:mean 	-nan
scalar Network.dyn_peer[966] 	lookupTimeSig:mean 	-nan
scalar Network.dyn_peer[966] 	lookupStabilitySig:mean 	-nan
scalar Network.dyn_peer[966] 	lookupHopsSig:mean 	-nan
scalar Network.dyn_peer[967] 	lookupTimeSig:mean 	-nan
scalar Network.dyn_peer[967] 	lookupStabilitySig:mean 	-nan
scalar Network.dyn_peer[967] 	lookupHopsSig:mean 	-nan
scalar Network.dyn_peer[968] 	lookupTimeSig:mean 	-nan
scalar Network.dyn_peer[968] 	lookupStabilitySig:mean 	-nan
scalar Network.dyn_peer[968] 	lookupHopsSig:mean 	-nan
scalar Network.dyn_peer[969] 	lookupTimeSig:mean 	-nan
scalar Network.dyn_peer[969] 	lookupStabilitySig:mean 	-nan
scalar Network.dyn_peer[969] 	lookupHopsSig:mean 	-nan
scalar Network.dyn_peer[970] 	lookupTimeSig:mean 	-nan
scalar Network.dyn_peer[970] 	lookupStabilitySig:mean 	-nan
scalar Network.dyn_peer[970] 	lookupHopsSig:mean 	-nan
scalar Network.dyn_peer[971] 	lookupTimeSig:mean 	-nan
scalar Network.dyn_peer[971] 	lookupStabilitySig:mean 	-nan
scalar Network.dyn_peer[971] 	lookupHopsSig:mean 	-nan
scalar Network.dyn_peer[972] 	lookupTimeSig:mean 	-nan
scalar Network.dyn_peer[972] 	lookupStabilitySig:mean 	-nan
scalar Network.dyn_peer[972] 	lookupHopsSig:mean 	-nan
scalar Network.dyn_peer[973] 	lookupTimeSig:mean 	-nan
scalar Network.dyn_peer[973] 	lookupStabilitySig:mean 	-nan
scalar Network.dyn_peer[973] 	lookupHopsSig:mean 	-nan
scalar Network.dyn_peer[974] 	lookupTimeSig:mean 	-nan
scalar Network.dyn_peer[974] 	lookupStabilitySig:mean 	-nan
scalar Network.dyn_peer[974] 	lookupHopsSig:mean 	-nan
scalar Network.dyn_peer[975] 	lookupTimeSig:mean 	-nan
scalar Network.dyn_peer[975] 	lookupStabilitySig:mean 	-nan
scalar Network.dyn_peer[975] 	lookupHopsSig:mean 	-nan
scalar Network.dyn_peer[976] 	lookupTimeSig:mean 	-nan
scalar Network.dyn_peer[976] 	lookupStabilitySig:mean 	-nan
scalar Network.dyn_peer[976] 	lookupHopsSig:mean 	-nan
scalar Network.dyn_peer[977] 	lookupTimeSig:mean 	-nan
scalar Network.dyn_peer[977] 	lookupStabilitySig:mean 	-nan
scalar Network.dyn_peer[977] 	lookupHopsSig:mean 	-nan
scalar Network.dyn_peer[978] 	lookupTimeSig:mean 	-nan
scalar Network.dyn_peer[978] 	lookupStabilitySig:mean 	-nan
scalar Network.dyn_peer[978] 	lookupHopsSig:mean 	-nan
scalar Network.dyn_peer[979] 	lookupTimeSig:mean 	-nan
scalar Network.dyn_peer[979] 	lookupStabilitySig:mean 	-nan
scalar Network.dyn_peer[979] 	lookupHopsSig:mean 	-nan
scalar Network.dyn_peer[980] 	lookupTimeSig:mean 	-nan
scalar Network.dyn_peer[980] 	lookupStabilitySig:mean 	-nan
scalar Network.dyn_peer[980] 	lookupHopsSig:mean 	-nan
scalar Network.dyn_peer[981] 	lookupTimeSig:mean 	-nan
scalar Network.dyn_peer[981] 	lookupStabilitySig:mean 	-nan
scalar Network.dyn_peer[981] 	lookupHopsSig:mean 	-nan
scalar Network.dyn_peer[982] 	lookupTimeSig:mean 	-nan
scalar Network.dyn_peer[982] 	lookupStabilitySig:mean 	-nan
scalar Network.dyn_peer[982] 	lookupHopsSig:mean 	-nan
scalar Network.dyn_peer[983] 	lookupTimeSig:mean 	-nan
scalar Network.dyn_peer[983] 	lookupStabilitySig:mean 	-nan
scalar Network.dyn_peer[983] 	lookupHopsSig:mean 	-nan
scalar Network.dyn_peer[984] 	lookupTimeSig:mean 	-nan
scalar Network.dyn_peer[984] 	lookupStabilitySig:mean 	-nan
scalar Network.dyn_peer[984] 	lookupHopsSig:mean 	-nan
scalar Network.dyn_peer[985] 	lookupTimeSig:mean 	-nan
scalar Network.dyn_peer[985] 	lookupStabilitySig:mean 	-nan
scalar Network.dyn_peer[985] 	lookupHopsSig:mean 	-nan
scalar Network.dyn_peer[986] 	lookupTimeSig:mean 	-nan
scalar Network.dyn_peer[986] 	lookupStabilitySig:mean 	-nan
scalar Network.dyn_peer[986] 	lookupHopsSig:mean 	-nan
scalar Network.dyn_peer[987] 	lookupTimeSig:mean 	-nan
scalar Network.dyn_peer[987] 	lookupStabilitySig:mean 	-nan
scalar Network.dyn_peer[987] 	lookupHopsSig:mean 	-nan
scalar Network.dyn_peer[988] 	lookupTimeSig:mean 	-nan
scalar Network.dyn_peer[988] 	lookupStabilitySig:mean 	-nan
scalar Network.dyn_peer[988] 	lookupHopsSig:mean 	-nan
scalar Network.dyn_peer[989] 	lookupTimeSig:mean 	-nan
scalar Network.dyn_peer[989] 	lookupStabilitySig:mean 	-nan
scalar Network.dyn_peer[989] 	lookupHopsSig:mean 	-nan
scalar Network.dyn_peer[990] 	lookupTimeSig:mean 	-nan
scalar Network.dyn_peer[990] 	lookupStabilitySig:mean 	-nan
scalar Network.dyn_peer[990] 	lookupHopsSig:mean 	-nan
scalar Network.dyn_peer[991] 	lookupTimeSig:mean 	-nan
scalar Network.dyn_peer[991] 	lookupStabilitySig:mean 	-nan
scalar Network.dyn_peer[991] 	lookupHopsSig:mean 	-nan
scalar Network.dyn_peer[992] 	lookupTimeSig:mean 	-nan
scalar Network.dyn_peer[992] 	lookupStabilitySig:mean 	-nan
scalar Network.dyn_peer[992] 	lookupHopsSig:mean 	-nan
scalar Network.dyn_peer[993] 	lookupTimeSig:mean 	-nan
scalar Network.dyn_peer[993] 	lookupStabilitySig:mean 	-nan
scalar Network.dyn_peer[993] 	lookupHopsSig:mean 	-nan
scalar Network.dyn_peer[994] 	lookupTimeSig:mean 	-nan
scalar Network.dyn_peer[994] 	lookupStabilitySig:mean 	-nan
scalar Network.dyn_peer[994] 	lookupHopsSig:mean 	-nan
scalar Network.dyn_peer[995] 	lookupTimeSig:mean 	-nan
scalar Network.dyn_peer[995] 	lookupStabilitySig:mean 	-nan
scalar Network.dyn_peer[995] 	lookupHopsSig:mean 	-nan
scalar Network.dyn_peer[996] 	lookupTimeSig:mean 	-nan
scalar Network.dyn_peer[996] 	lookupStabilitySig:mean 	-nan
scalar Network.dyn_peer[996] 	lookupHopsSig:mean 	-nan
scalar Network.dyn_peer[997] 	lookupTimeSig:mean 	-nan
scalar Network.dyn_peer[997] 	lookupStabilitySig:mean 	-nan
scalar Network.dyn_peer[997] 	lookupHopsSig:mean 	-nan
scalar Network.dyn_peer[998] 	lookupTimeSig:mean 	-nan
scalar Network.dyn_peer[998] 	lookupStabilitySig:mean 	-nan
scalar Network.dyn_peer[998] 	lookupHopsSig:mean 	-nan
scalar Network.dyn_peer[999] 	lookupTimeSig:mean 	-nan
scalar Network.dyn_peer[999] 	lookupStabilitySig:mean 	-nan
scalar Network.dyn_peer[999] 	lookupHopsSig:mean 	-nan
scalar Network.churner 	inGoingSizeSig:mean 	249.00199600798
