version 2
run Stability2-287-20130526-00:53:58-26640
attr configname Stability2
attr datetime 20130526-00:53:58
attr experiment Stability2
attr inifile omnetpp.ini
attr iterationvars $0=500
attr iterationvars2 "$0=500, $repetition=17"
attr measurement $0=500
attr network Network
attr processid 26640
attr repetition 17
attr replication #17
attr resultdir results
attr runnumber 287
attr seedset 287

scalar Network.dyn_peer[0] 	lookupTimeSig:mean 	1.8
scalar Network.dyn_peer[0] 	lookupStabilitySig:mean 	0.3387181520462
scalar Network.dyn_peer[0] 	lookupHopsSig:mean 	17.2
scalar Network.dyn_peer[1] 	lookupTimeSig:mean 	2.7333333333333
scalar Network.dyn_peer[1] 	lookupStabilitySig:mean 	0.51885963479678
scalar Network.dyn_peer[1] 	lookupHopsSig:mean 	26.666666666667
scalar Network.dyn_peer[2] 	lookupTimeSig:mean 	1.5666666666667
scalar Network.dyn_peer[2] 	lookupStabilitySig:mean 	0.56438214580218
scalar Network.dyn_peer[2] 	lookupHopsSig:mean 	15
scalar Network.dyn_peer[3] 	lookupTimeSig:mean 	1.575
scalar Network.dyn_peer[3] 	lookupStabilitySig:mean 	0.4557700464502
scalar Network.dyn_peer[3] 	lookupHopsSig:mean 	15
scalar Network.dyn_peer[4] 	lookupTimeSig:mean 	1.06
scalar Network.dyn_peer[4] 	lookupStabilitySig:mean 	0.43151050359011
scalar Network.dyn_peer[4] 	lookupHopsSig:mean 	9.8
scalar Network.dyn_peer[5] 	lookupTimeSig:mean 	2.2666666666667
scalar Network.dyn_peer[5] 	lookupStabilitySig:mean 	0.57209301988284
scalar Network.dyn_peer[5] 	lookupHopsSig:mean 	22
scalar Network.dyn_peer[6] 	lookupTimeSig:mean 	1.5428571428571
scalar Network.dyn_peer[6] 	lookupStabilitySig:mean 	0.69183074150767
scalar Network.dyn_peer[6] 	lookupHopsSig:mean 	14.571428571429
scalar Network.dyn_peer[7] 	lookupTimeSig:mean 	0.76666666666667
scalar Network.dyn_peer[7] 	lookupStabilitySig:mean 	0.044444431861242
scalar Network.dyn_peer[7] 	lookupHopsSig:mean 	7
scalar Network.dyn_peer[8] 	lookupTimeSig:mean 	1.375
scalar Network.dyn_peer[8] 	lookupStabilitySig:mean 	0.33549918327481
scalar Network.dyn_peer[8] 	lookupHopsSig:mean 	13
scalar Network.dyn_peer[9] 	lookupTimeSig:mean 	0.96666666666667
scalar Network.dyn_peer[9] 	lookupStabilitySig:mean 	0.47231294835607
scalar Network.dyn_peer[9] 	lookupHopsSig:mean 	8.8333333333333
scalar Network.dyn_peer[10] 	lookupTimeSig:mean 	1.2333333333333
scalar Network.dyn_peer[10] 	lookupStabilitySig:mean 	0.19892472028732
scalar Network.dyn_peer[10] 	lookupHopsSig:mean 	11.666666666667
scalar Network.dyn_peer[11] 	lookupTimeSig:mean 	2.3333333333333
scalar Network.dyn_peer[11] 	lookupStabilitySig:mean 	0.51600031554699
scalar Network.dyn_peer[11] 	lookupHopsSig:mean 	22.666666666667
scalar Network.dyn_peer[12] 	lookupTimeSig:mean 	1.575
scalar Network.dyn_peer[12] 	lookupStabilitySig:mean 	0.4376976583153
scalar Network.dyn_peer[12] 	lookupHopsSig:mean 	15
scalar Network.dyn_peer[13] 	lookupTimeSig:mean 	1.5888888888889
scalar Network.dyn_peer[13] 	lookupStabilitySig:mean 	0.69660365395248
scalar Network.dyn_peer[13] 	lookupHopsSig:mean 	15
scalar Network.dyn_peer[14] 	lookupTimeSig:mean 	1.1285714285714
scalar Network.dyn_peer[14] 	lookupStabilitySig:mean 	0.55696295467871
scalar Network.dyn_peer[14] 	lookupHopsSig:mean 	10.428571428571
scalar Network.dyn_peer[15] 	lookupTimeSig:mean 	1.6
scalar Network.dyn_peer[15] 	lookupStabilitySig:mean 	0.50526314228773
scalar Network.dyn_peer[15] 	lookupHopsSig:mean 	15.5
scalar Network.dyn_peer[16] 	lookupTimeSig:mean 	1.3666666666667
scalar Network.dyn_peer[16] 	lookupStabilitySig:mean 	0.4886232552429
scalar Network.dyn_peer[16] 	lookupHopsSig:mean 	12.833333333333
scalar Network.dyn_peer[17] 	lookupTimeSig:mean 	1.46
scalar Network.dyn_peer[17] 	lookupStabilitySig:mean 	0.41064259633422
scalar Network.dyn_peer[17] 	lookupHopsSig:mean 	13.8
scalar Network.dyn_peer[18] 	lookupTimeSig:mean 	1.65
scalar Network.dyn_peer[18] 	lookupStabilitySig:mean 	0.67578190471977
scalar Network.dyn_peer[18] 	lookupHopsSig:mean 	15.75
scalar Network.dyn_peer[19] 	lookupTimeSig:mean 	1.725
scalar Network.dyn_peer[19] 	lookupStabilitySig:mean 	0.79647481720895
scalar Network.dyn_peer[19] 	lookupHopsSig:mean 	16.5
scalar Network.dyn_peer[20] 	lookupTimeSig:mean 	1.54
scalar Network.dyn_peer[20] 	lookupStabilitySig:mean 	0.47883785031736
scalar Network.dyn_peer[20] 	lookupHopsSig:mean 	14.6
scalar Network.dyn_peer[21] 	lookupTimeSig:mean 	1.3142857142857
scalar Network.dyn_peer[21] 	lookupStabilitySig:mean 	0.53954593970307
scalar Network.dyn_peer[21] 	lookupHopsSig:mean 	12.285714285714
scalar Network.dyn_peer[22] 	lookupTimeSig:mean 	0.9
scalar Network.dyn_peer[22] 	lookupStabilitySig:mean 	0.38154534064233
scalar Network.dyn_peer[22] 	lookupHopsSig:mean 	8.25
scalar Network.dyn_peer[23] 	lookupTimeSig:mean 	1.8
scalar Network.dyn_peer[23] 	lookupStabilitySig:mean 	0.42413792014122
scalar Network.dyn_peer[23] 	lookupHopsSig:mean 	17.5
scalar Network.dyn_peer[24] 	lookupTimeSig:mean 	1.64
scalar Network.dyn_peer[24] 	lookupStabilitySig:mean 	0.50994289070368
scalar Network.dyn_peer[24] 	lookupHopsSig:mean 	15.6
scalar Network.dyn_peer[25] 	lookupTimeSig:mean 	0.775
scalar Network.dyn_peer[25] 	lookupStabilitySig:mean 	0.28802084177732
scalar Network.dyn_peer[25] 	lookupHopsSig:mean 	7
scalar Network.dyn_peer[26] 	lookupTimeSig:mean 	1.675
scalar Network.dyn_peer[26] 	lookupStabilitySig:mean 	0.53244608268142
scalar Network.dyn_peer[26] 	lookupHopsSig:mean 	16
scalar Network.dyn_peer[27] 	lookupTimeSig:mean 	1.2
scalar Network.dyn_peer[27] 	lookupStabilitySig:mean 	0.31872710213065
scalar Network.dyn_peer[27] 	lookupHopsSig:mean 	11.25
scalar Network.dyn_peer[28] 	lookupTimeSig:mean 	1.175
scalar Network.dyn_peer[28] 	lookupStabilitySig:mean 	0.3486111164093
scalar Network.dyn_peer[28] 	lookupHopsSig:mean 	11
scalar Network.dyn_peer[29] 	lookupTimeSig:mean 	1.4
scalar Network.dyn_peer[29] 	lookupStabilitySig:mean 	0.71883911887805
scalar Network.dyn_peer[29] 	lookupHopsSig:mean 	13.166666666667
scalar Network.dyn_peer[30] 	lookupTimeSig:mean 	2.35
scalar Network.dyn_peer[30] 	lookupStabilitySig:mean 	0.7870370298624
scalar Network.dyn_peer[30] 	lookupHopsSig:mean 	23
scalar Network.dyn_peer[31] 	lookupTimeSig:mean 	1.3714285714286
scalar Network.dyn_peer[31] 	lookupStabilitySig:mean 	0.63828911073506
scalar Network.dyn_peer[31] 	lookupHopsSig:mean 	12.857142857143
scalar Network.dyn_peer[32] 	lookupTimeSig:mean 	1.2666666666667
scalar Network.dyn_peer[32] 	lookupStabilitySig:mean 	0.5795454531908
scalar Network.dyn_peer[32] 	lookupHopsSig:mean 	12
scalar Network.dyn_peer[33] 	lookupTimeSig:mean 	0.93333333333333
scalar Network.dyn_peer[33] 	lookupStabilitySig:mean 	0.44978369648258
scalar Network.dyn_peer[33] 	lookupHopsSig:mean 	8.5
scalar Network.dyn_peer[34] 	lookupTimeSig:mean 	1.1
scalar Network.dyn_peer[34] 	lookupStabilitySig:mean 	0.58550724511345
scalar Network.dyn_peer[34] 	lookupHopsSig:mean 	10.333333333333
scalar Network.dyn_peer[35] 	lookupTimeSig:mean 	2.1
scalar Network.dyn_peer[35] 	lookupStabilitySig:mean 	0.65609755367041
scalar Network.dyn_peer[35] 	lookupHopsSig:mean 	20.5
scalar Network.dyn_peer[36] 	lookupTimeSig:mean 	1.125
scalar Network.dyn_peer[36] 	lookupStabilitySig:mean 	0.61970027652569
scalar Network.dyn_peer[36] 	lookupHopsSig:mean 	10.5
scalar Network.dyn_peer[37] 	lookupTimeSig:mean 	1.075
scalar Network.dyn_peer[37] 	lookupStabilitySig:mean 	0.22910745814443
scalar Network.dyn_peer[37] 	lookupHopsSig:mean 	10
scalar Network.dyn_peer[38] 	lookupTimeSig:mean 	2.75
scalar Network.dyn_peer[38] 	lookupStabilitySig:mean 	0.33445945382118
scalar Network.dyn_peer[38] 	lookupHopsSig:mean 	27
scalar Network.dyn_peer[39] 	lookupTimeSig:mean 	1.5333333333333
scalar Network.dyn_peer[39] 	lookupStabilitySig:mean 	0.51818095644315
scalar Network.dyn_peer[39] 	lookupHopsSig:mean 	14.5
scalar Network.dyn_peer[40] 	lookupTimeSig:mean 	1.025
scalar Network.dyn_peer[40] 	lookupStabilitySig:mean 	0.37682780157775
scalar Network.dyn_peer[40] 	lookupHopsSig:mean 	9.5
scalar Network.dyn_peer[41] 	lookupTimeSig:mean 	1.7666666666667
scalar Network.dyn_peer[41] 	lookupStabilitySig:mean 	0.39205544193586
scalar Network.dyn_peer[41] 	lookupHopsSig:mean 	17
scalar Network.dyn_peer[42] 	lookupTimeSig:mean 	1.01
scalar Network.dyn_peer[42] 	lookupStabilitySig:mean 	0.74052195837721
scalar Network.dyn_peer[42] 	lookupHopsSig:mean 	9.2
scalar Network.dyn_peer[43] 	lookupTimeSig:mean 	1.1333333333333
scalar Network.dyn_peer[43] 	lookupStabilitySig:mean 	0.54038686864078
scalar Network.dyn_peer[43] 	lookupHopsSig:mean 	10.5
scalar Network.dyn_peer[44] 	lookupTimeSig:mean 	0.9
scalar Network.dyn_peer[44] 	lookupStabilitySig:mean 	0.39523809403181
scalar Network.dyn_peer[44] 	lookupHopsSig:mean 	8.25
scalar Network.dyn_peer[45] 	lookupTimeSig:mean 	1.0875
scalar Network.dyn_peer[45] 	lookupStabilitySig:mean 	0.70545577909797
scalar Network.dyn_peer[45] 	lookupHopsSig:mean 	10
scalar Network.dyn_peer[46] 	lookupTimeSig:mean 	1.1
scalar Network.dyn_peer[46] 	lookupStabilitySig:mean 	0.29999999205271
scalar Network.dyn_peer[46] 	lookupHopsSig:mean 	10.333333333333
scalar Network.dyn_peer[47] 	lookupTimeSig:mean 	1.15
scalar Network.dyn_peer[47] 	lookupStabilitySig:mean 	0.50732395984232
scalar Network.dyn_peer[47] 	lookupHopsSig:mean 	10.75
scalar Network.dyn_peer[48] 	lookupTimeSig:mean 	1.26
scalar Network.dyn_peer[48] 	lookupStabilitySig:mean 	0.57672618255019
scalar Network.dyn_peer[48] 	lookupHopsSig:mean 	11.8
scalar Network.dyn_peer[49] 	lookupTimeSig:mean 	0.55714285714286
scalar Network.dyn_peer[49] 	lookupStabilitySig:mean 	0.65691900705653
scalar Network.dyn_peer[49] 	lookupHopsSig:mean 	4.7142857142857
scalar Network.dyn_peer[50] 	lookupTimeSig:mean 	1.125
scalar Network.dyn_peer[50] 	lookupStabilitySig:mean 	0.38672066666186
scalar Network.dyn_peer[50] 	lookupHopsSig:mean 	10.5
scalar Network.dyn_peer[51] 	lookupTimeSig:mean 	1.7333333333333
scalar Network.dyn_peer[51] 	lookupStabilitySig:mean 	0.18072915077209
scalar Network.dyn_peer[51] 	lookupHopsSig:mean 	16.666666666667
scalar Network.dyn_peer[52] 	lookupTimeSig:mean 	1.7
scalar Network.dyn_peer[52] 	lookupStabilitySig:mean 	0.50413440307602
scalar Network.dyn_peer[52] 	lookupHopsSig:mean 	16.25
scalar Network.dyn_peer[53] 	lookupTimeSig:mean 	1.1666666666667
scalar Network.dyn_peer[53] 	lookupStabilitySig:mean 	0.55757576227188
scalar Network.dyn_peer[53] 	lookupHopsSig:mean 	11
scalar Network.dyn_peer[54] 	lookupTimeSig:mean 	1.05
scalar Network.dyn_peer[54] 	lookupStabilitySig:mean 	0.50638636263708
scalar Network.dyn_peer[54] 	lookupHopsSig:mean 	9.6666666666667
scalar Network.dyn_peer[55] 	lookupTimeSig:mean 	0.9625
scalar Network.dyn_peer[55] 	lookupStabilitySig:mean 	0.62251249724068
scalar Network.dyn_peer[55] 	lookupHopsSig:mean 	8.75
scalar Network.dyn_peer[56] 	lookupTimeSig:mean 	1.64
scalar Network.dyn_peer[56] 	lookupStabilitySig:mean 	0.46171456426382
scalar Network.dyn_peer[56] 	lookupHopsSig:mean 	15.6
scalar Network.dyn_peer[57] 	lookupTimeSig:mean 	1.15
scalar Network.dyn_peer[57] 	lookupStabilitySig:mean 	0.52242073851327
scalar Network.dyn_peer[57] 	lookupHopsSig:mean 	10.666666666667
scalar Network.dyn_peer[58] 	lookupTimeSig:mean 	1.78
scalar Network.dyn_peer[58] 	lookupStabilitySig:mean 	0.60051380395889
scalar Network.dyn_peer[58] 	lookupHopsSig:mean 	17
scalar Network.dyn_peer[59] 	lookupTimeSig:mean 	1.025
scalar Network.dyn_peer[59] 	lookupStabilitySig:mean 	0.46656117215753
scalar Network.dyn_peer[59] 	lookupHopsSig:mean 	9.5
scalar Network.dyn_peer[60] 	lookupTimeSig:mean 	2.1
scalar Network.dyn_peer[60] 	lookupStabilitySig:mean 	0.79599965177476
scalar Network.dyn_peer[60] 	lookupHopsSig:mean 	20.25
scalar Network.dyn_peer[61] 	lookupTimeSig:mean 	1.2
scalar Network.dyn_peer[61] 	lookupStabilitySig:mean 	0.76766531794731
scalar Network.dyn_peer[61] 	lookupHopsSig:mean 	11.142857142857
scalar Network.dyn_peer[62] 	lookupTimeSig:mean 	1.36
scalar Network.dyn_peer[62] 	lookupStabilitySig:mean 	0.51411492824554
scalar Network.dyn_peer[62] 	lookupHopsSig:mean 	12.8
scalar Network.dyn_peer[63] 	lookupTimeSig:mean 	1.15
scalar Network.dyn_peer[63] 	lookupStabilitySig:mean 	0.55563240063687
scalar Network.dyn_peer[63] 	lookupHopsSig:mean 	10.666666666667
scalar Network.dyn_peer[64] 	lookupTimeSig:mean 	1.25
scalar Network.dyn_peer[64] 	lookupStabilitySig:mean 	0.44071428850293
scalar Network.dyn_peer[64] 	lookupHopsSig:mean 	11.75
scalar Network.dyn_peer[65] 	lookupTimeSig:mean 	1.3142857142857
scalar Network.dyn_peer[65] 	lookupStabilitySig:mean 	0.64719376939216
scalar Network.dyn_peer[65] 	lookupHopsSig:mean 	12.285714285714
scalar Network.dyn_peer[66] 	lookupTimeSig:mean 	1.8
scalar Network.dyn_peer[66] 	lookupStabilitySig:mean 	0.4278566489617
scalar Network.dyn_peer[66] 	lookupHopsSig:mean 	17.333333333333
scalar Network.dyn_peer[67] 	lookupTimeSig:mean 	2.3
scalar Network.dyn_peer[67] 	lookupStabilitySig:mean 	0.59326922893524
scalar Network.dyn_peer[67] 	lookupHopsSig:mean 	22.5
scalar Network.dyn_peer[68] 	lookupTimeSig:mean 	1.525
scalar Network.dyn_peer[68] 	lookupStabilitySig:mean 	0.38802582398057
scalar Network.dyn_peer[68] 	lookupHopsSig:mean 	14.5
scalar Network.dyn_peer[69] 	lookupTimeSig:mean 	1.325
scalar Network.dyn_peer[69] 	lookupStabilitySig:mean 	0.30655111745
scalar Network.dyn_peer[69] 	lookupHopsSig:mean 	12.5
scalar Network.dyn_peer[70] 	lookupTimeSig:mean 	1.1714285714286
scalar Network.dyn_peer[70] 	lookupStabilitySig:mean 	0.57636297334518
scalar Network.dyn_peer[70] 	lookupHopsSig:mean 	10.857142857143
scalar Network.dyn_peer[71] 	lookupTimeSig:mean 	2.6
scalar Network.dyn_peer[71] 	lookupStabilitySig:mean 	0.8053435087204
scalar Network.dyn_peer[71] 	lookupHopsSig:mean 	25.5
scalar Network.dyn_peer[72] 	lookupTimeSig:mean 	1.0727272727273
scalar Network.dyn_peer[72] 	lookupStabilitySig:mean 	0.71683351661671
scalar Network.dyn_peer[72] 	lookupHopsSig:mean 	9.8181818181818
scalar Network.dyn_peer[73] 	lookupTimeSig:mean 	1.975
scalar Network.dyn_peer[73] 	lookupStabilitySig:mean 	0.25969739072025
scalar Network.dyn_peer[73] 	lookupHopsSig:mean 	19
scalar Network.dyn_peer[74] 	lookupTimeSig:mean 	0.6
scalar Network.dyn_peer[74] 	lookupStabilitySig:mean 	0.23760504648089
scalar Network.dyn_peer[74] 	lookupHopsSig:mean 	5.25
scalar Network.dyn_peer[75] 	lookupTimeSig:mean 	0.99090909090909
scalar Network.dyn_peer[75] 	lookupStabilitySig:mean 	0.72438471984457
scalar Network.dyn_peer[75] 	lookupHopsSig:mean 	9
scalar Network.dyn_peer[76] 	lookupTimeSig:mean 	2.6666666666667
scalar Network.dyn_peer[76] 	lookupStabilitySig:mean 	0.55535904690623
scalar Network.dyn_peer[76] 	lookupHopsSig:mean 	26
scalar Network.dyn_peer[77] 	lookupTimeSig:mean 	1.3
scalar Network.dyn_peer[77] 	lookupStabilitySig:mean 	0.25793651491404
scalar Network.dyn_peer[77] 	lookupHopsSig:mean 	12.333333333333
scalar Network.dyn_peer[78] 	lookupTimeSig:mean 	1.325
scalar Network.dyn_peer[78] 	lookupStabilitySig:mean 	0.4138900032267
scalar Network.dyn_peer[78] 	lookupHopsSig:mean 	12.5
scalar Network.dyn_peer[79] 	lookupTimeSig:mean 	1.12
scalar Network.dyn_peer[79] 	lookupStabilitySig:mean 	0.70206137753557
scalar Network.dyn_peer[79] 	lookupHopsSig:mean 	10.3
scalar Network.dyn_peer[80] 	lookupTimeSig:mean 	1.425
scalar Network.dyn_peer[80] 	lookupStabilitySig:mean 	0.59838121198118
scalar Network.dyn_peer[80] 	lookupHopsSig:mean 	13.5
scalar Network.dyn_peer[81] 	lookupTimeSig:mean 	1.74
scalar Network.dyn_peer[81] 	lookupStabilitySig:mean 	0.50093140378594
scalar Network.dyn_peer[81] 	lookupHopsSig:mean 	16.6
scalar Network.dyn_peer[82] 	lookupTimeSig:mean 	1.15
scalar Network.dyn_peer[82] 	lookupStabilitySig:mean 	-0.26666668057442
scalar Network.dyn_peer[82] 	lookupHopsSig:mean 	11
scalar Network.dyn_peer[83] 	lookupTimeSig:mean 	1.7
scalar Network.dyn_peer[83] 	lookupStabilitySig:mean 	0.045098036527634
scalar Network.dyn_peer[83] 	lookupHopsSig:mean 	16.5
scalar Network.dyn_peer[84] 	lookupTimeSig:mean 	1.2818181818182
scalar Network.dyn_peer[84] 	lookupStabilitySig:mean 	0.73244209392843
scalar Network.dyn_peer[84] 	lookupHopsSig:mean 	11.909090909091
scalar Network.dyn_peer[85] 	lookupTimeSig:mean 	1.1333333333333
scalar Network.dyn_peer[85] 	lookupStabilitySig:mean 	0.68009653796131
scalar Network.dyn_peer[85] 	lookupHopsSig:mean 	10.5
scalar Network.dyn_peer[86] 	lookupTimeSig:mean 	1.7285714285714
scalar Network.dyn_peer[86] 	lookupStabilitySig:mean 	0.82565893711788
scalar Network.dyn_peer[86] 	lookupHopsSig:mean 	16.428571428571
scalar Network.dyn_peer[87] 	lookupTimeSig:mean 	1.5
scalar Network.dyn_peer[87] 	lookupStabilitySig:mean 	0.32294800877571
scalar Network.dyn_peer[87] 	lookupHopsSig:mean 	14.25
scalar Network.dyn_peer[88] 	lookupTimeSig:mean 	0.75
scalar Network.dyn_peer[88] 	lookupStabilitySig:mean 	0.3563218228519
scalar Network.dyn_peer[88] 	lookupHopsSig:mean 	6.75
scalar Network.dyn_peer[89] 	lookupTimeSig:mean 	0.85
scalar Network.dyn_peer[89] 	lookupStabilitySig:mean 	0.45896226726472
scalar Network.dyn_peer[89] 	lookupHopsSig:mean 	7.75
scalar Network.dyn_peer[90] 	lookupTimeSig:mean 	1.55
scalar Network.dyn_peer[90] 	lookupStabilitySig:mean 	-0.18809527158737
scalar Network.dyn_peer[90] 	lookupHopsSig:mean 	15
scalar Network.dyn_peer[91] 	lookupTimeSig:mean 	1.76
scalar Network.dyn_peer[91] 	lookupStabilitySig:mean 	0.41682155057788
scalar Network.dyn_peer[91] 	lookupHopsSig:mean 	16.8
scalar Network.dyn_peer[92] 	lookupTimeSig:mean 	1.4
scalar Network.dyn_peer[92] 	lookupStabilitySig:mean 	0.40238096316655
scalar Network.dyn_peer[92] 	lookupHopsSig:mean 	13.333333333333
scalar Network.dyn_peer[93] 	lookupTimeSig:mean 	1.2666666666667
scalar Network.dyn_peer[93] 	lookupStabilitySig:mean 	0.56948393179725
scalar Network.dyn_peer[93] 	lookupHopsSig:mean 	11.833333333333
scalar Network.dyn_peer[94] 	lookupTimeSig:mean 	1.2625
scalar Network.dyn_peer[94] 	lookupStabilitySig:mean 	0.65877543855458
scalar Network.dyn_peer[94] 	lookupHopsSig:mean 	11.75
scalar Network.dyn_peer[95] 	lookupTimeSig:mean 	1.575
scalar Network.dyn_peer[95] 	lookupStabilitySig:mean 	0.45974266715348
scalar Network.dyn_peer[95] 	lookupHopsSig:mean 	15
scalar Network.dyn_peer[96] 	lookupTimeSig:mean 	1.5285714285714
scalar Network.dyn_peer[96] 	lookupStabilitySig:mean 	0.60314988451345
scalar Network.dyn_peer[96] 	lookupHopsSig:mean 	14.428571428571
scalar Network.dyn_peer[97] 	lookupTimeSig:mean 	1.1555555555556
scalar Network.dyn_peer[97] 	lookupStabilitySig:mean 	0.71631331064014
scalar Network.dyn_peer[97] 	lookupHopsSig:mean 	10.666666666667
scalar Network.dyn_peer[98] 	lookupTimeSig:mean 	1.75
scalar Network.dyn_peer[98] 	lookupStabilitySig:mean 	-0.12321425974369
scalar Network.dyn_peer[98] 	lookupHopsSig:mean 	17
scalar Network.dyn_peer[99] 	lookupTimeSig:mean 	0.95
scalar Network.dyn_peer[99] 	lookupStabilitySig:mean 	0.35392975062132
scalar Network.dyn_peer[99] 	lookupHopsSig:mean 	8.75
scalar Network.dyn_peer[100] 	lookupTimeSig:mean 	1.44
scalar Network.dyn_peer[100] 	lookupStabilitySig:mean 	0.63935483321548
scalar Network.dyn_peer[100] 	lookupHopsSig:mean 	13.6
scalar Network.dyn_peer[101] 	lookupTimeSig:mean 	0.95
scalar Network.dyn_peer[101] 	lookupStabilitySig:mean 	0.61523508404692
scalar Network.dyn_peer[101] 	lookupHopsSig:mean 	8.6666666666667
scalar Network.dyn_peer[102] 	lookupTimeSig:mean 	2.2
scalar Network.dyn_peer[102] 	lookupStabilitySig:mean 	0.71374850223462
scalar Network.dyn_peer[102] 	lookupHopsSig:mean 	21.333333333333
scalar Network.dyn_peer[103] 	lookupTimeSig:mean 	1.3166666666667
scalar Network.dyn_peer[103] 	lookupStabilitySig:mean 	0.62309637976189
scalar Network.dyn_peer[103] 	lookupHopsSig:mean 	12.333333333333
scalar Network.dyn_peer[104] 	lookupTimeSig:mean 	2.7
scalar Network.dyn_peer[104] 	lookupStabilitySig:mean 	0.51594636589289
scalar Network.dyn_peer[104] 	lookupHopsSig:mean 	26.333333333333
scalar Network.dyn_peer[105] 	lookupTimeSig:mean 	1.0666666666667
scalar Network.dyn_peer[105] 	lookupStabilitySig:mean 	0.74308590694434
scalar Network.dyn_peer[105] 	lookupHopsSig:mean 	9.7777777777778
scalar Network.dyn_peer[106] 	lookupTimeSig:mean 	1.7714285714286
scalar Network.dyn_peer[106] 	lookupStabilitySig:mean 	0.61923013388046
scalar Network.dyn_peer[106] 	lookupHopsSig:mean 	16.857142857143
scalar Network.dyn_peer[107] 	lookupTimeSig:mean 	1.2916666666667
scalar Network.dyn_peer[107] 	lookupStabilitySig:mean 	0.86316627946993
scalar Network.dyn_peer[107] 	lookupHopsSig:mean 	12
scalar Network.dyn_peer[108] 	lookupTimeSig:mean 	1.4714285714286
scalar Network.dyn_peer[108] 	lookupStabilitySig:mean 	0.65557153230267
scalar Network.dyn_peer[108] 	lookupHopsSig:mean 	13.857142857143
scalar Network.dyn_peer[109] 	lookupTimeSig:mean 	1.26
scalar Network.dyn_peer[109] 	lookupStabilitySig:mean 	0.40885305404663
scalar Network.dyn_peer[109] 	lookupHopsSig:mean 	11.8
scalar Network.dyn_peer[110] 	lookupTimeSig:mean 	1.9
scalar Network.dyn_peer[110] 	lookupStabilitySig:mean 	0.60003351295988
scalar Network.dyn_peer[110] 	lookupHopsSig:mean 	18.166666666667
scalar Network.dyn_peer[111] 	lookupTimeSig:mean 	2.02
scalar Network.dyn_peer[111] 	lookupStabilitySig:mean 	0.7295838534832
scalar Network.dyn_peer[111] 	lookupHopsSig:mean 	19.4
scalar Network.dyn_peer[112] 	lookupTimeSig:mean 	1.0142857142857
scalar Network.dyn_peer[112] 	lookupStabilitySig:mean 	0.78622789707567
scalar Network.dyn_peer[112] 	lookupHopsSig:mean 	9.2857142857143
scalar Network.dyn_peer[113] 	lookupTimeSig:mean 	2.3
scalar Network.dyn_peer[113] 	lookupStabilitySig:mean 	0.15590525666873
scalar Network.dyn_peer[113] 	lookupHopsSig:mean 	22.333333333333
scalar Network.dyn_peer[114] 	lookupTimeSig:mean 	1.4666666666667
scalar Network.dyn_peer[114] 	lookupStabilitySig:mean 	0.45947489452859
scalar Network.dyn_peer[114] 	lookupHopsSig:mean 	13.833333333333
scalar Network.dyn_peer[115] 	lookupTimeSig:mean 	1.8375
scalar Network.dyn_peer[115] 	lookupStabilitySig:mean 	0.9212405391736
scalar Network.dyn_peer[115] 	lookupHopsSig:mean 	17.5
scalar Network.dyn_peer[116] 	lookupTimeSig:mean 	2.05
scalar Network.dyn_peer[116] 	lookupStabilitySig:mean 	-0.17283950746059
scalar Network.dyn_peer[116] 	lookupHopsSig:mean 	20
scalar Network.dyn_peer[117] 	lookupTimeSig:mean 	1.175
scalar Network.dyn_peer[117] 	lookupStabilitySig:mean 	0.40617689117789
scalar Network.dyn_peer[117] 	lookupHopsSig:mean 	11
scalar Network.dyn_peer[118] 	lookupTimeSig:mean 	1.0333333333333
scalar Network.dyn_peer[118] 	lookupStabilitySig:mean 	0.47486716570954
scalar Network.dyn_peer[118] 	lookupHopsSig:mean 	9.5
scalar Network.dyn_peer[119] 	lookupTimeSig:mean 	1.2
scalar Network.dyn_peer[119] 	lookupStabilitySig:mean 	0.23867229931056
scalar Network.dyn_peer[119] 	lookupHopsSig:mean 	11.25
scalar Network.dyn_peer[120] 	lookupTimeSig:mean 	1.4
scalar Network.dyn_peer[120] 	lookupStabilitySig:mean 	0.18111836413542
scalar Network.dyn_peer[120] 	lookupHopsSig:mean 	13.333333333333
scalar Network.dyn_peer[121] 	lookupTimeSig:mean 	1.525
scalar Network.dyn_peer[121] 	lookupStabilitySig:mean 	0.35876778117381
scalar Network.dyn_peer[121] 	lookupHopsSig:mean 	14.5
scalar Network.dyn_peer[122] 	lookupTimeSig:mean 	1.68
scalar Network.dyn_peer[122] 	lookupStabilitySig:mean 	0.47622108832002
scalar Network.dyn_peer[122] 	lookupHopsSig:mean 	16
scalar Network.dyn_peer[123] 	lookupTimeSig:mean 	1.1666666666667
scalar Network.dyn_peer[123] 	lookupStabilitySig:mean 	0.1697368423144
scalar Network.dyn_peer[123] 	lookupHopsSig:mean 	11
scalar Network.dyn_peer[124] 	lookupTimeSig:mean 	1.775
scalar Network.dyn_peer[124] 	lookupStabilitySig:mean 	0.74617398809642
scalar Network.dyn_peer[124] 	lookupHopsSig:mean 	17
scalar Network.dyn_peer[125] 	lookupTimeSig:mean 	1.15
scalar Network.dyn_peer[125] 	lookupStabilitySig:mean 	0.53055138761799
scalar Network.dyn_peer[125] 	lookupHopsSig:mean 	10.666666666667
scalar Network.dyn_peer[126] 	lookupTimeSig:mean 	1.98
scalar Network.dyn_peer[126] 	lookupStabilitySig:mean 	0.88597426954657
scalar Network.dyn_peer[126] 	lookupHopsSig:mean 	19
scalar Network.dyn_peer[127] 	lookupTimeSig:mean 	1.42
scalar Network.dyn_peer[127] 	lookupStabilitySig:mean 	0.57508026957512
scalar Network.dyn_peer[127] 	lookupHopsSig:mean 	13.4
scalar Network.dyn_peer[128] 	lookupTimeSig:mean 	1.525
scalar Network.dyn_peer[128] 	lookupStabilitySig:mean 	0.38358981534839
scalar Network.dyn_peer[128] 	lookupHopsSig:mean 	14.5
scalar Network.dyn_peer[129] 	lookupTimeSig:mean 	1.46
scalar Network.dyn_peer[129] 	lookupStabilitySig:mean 	0.5035192489624
scalar Network.dyn_peer[129] 	lookupHopsSig:mean 	13.8
scalar Network.dyn_peer[130] 	lookupTimeSig:mean 	1.15
scalar Network.dyn_peer[130] 	lookupStabilitySig:mean 	0.61361382808536
scalar Network.dyn_peer[130] 	lookupHopsSig:mean 	10.666666666667
scalar Network.dyn_peer[131] 	lookupTimeSig:mean 	1.56
scalar Network.dyn_peer[131] 	lookupStabilitySig:mean 	0.66217126138508
scalar Network.dyn_peer[131] 	lookupHopsSig:mean 	14.8
scalar Network.dyn_peer[132] 	lookupTimeSig:mean 	0.85555555555556
scalar Network.dyn_peer[132] 	lookupStabilitySig:mean 	0.68523940811348
scalar Network.dyn_peer[132] 	lookupHopsSig:mean 	7.6666666666667
scalar Network.dyn_peer[133] 	lookupTimeSig:mean 	1.18
scalar Network.dyn_peer[133] 	lookupStabilitySig:mean 	0.60702508538961
scalar Network.dyn_peer[133] 	lookupHopsSig:mean 	11
scalar Network.dyn_peer[134] 	lookupTimeSig:mean 	1.2777777777778
scalar Network.dyn_peer[134] 	lookupStabilitySig:mean 	0.74142532130807
scalar Network.dyn_peer[134] 	lookupHopsSig:mean 	11.888888888889
scalar Network.dyn_peer[135] 	lookupTimeSig:mean 	1
scalar Network.dyn_peer[135] 	lookupStabilitySig:mean 	0.47666667401791
scalar Network.dyn_peer[135] 	lookupHopsSig:mean 	9.25
scalar Network.dyn_peer[136] 	lookupTimeSig:mean 	1.1555555555556
scalar Network.dyn_peer[136] 	lookupStabilitySig:mean 	0.92001879903384
scalar Network.dyn_peer[136] 	lookupHopsSig:mean 	10.666666666667
scalar Network.dyn_peer[137] 	lookupTimeSig:mean 	1
scalar Network.dyn_peer[137] 	lookupStabilitySig:mean 	0.6051178611815
scalar Network.dyn_peer[137] 	lookupHopsSig:mean 	9.1666666666667
scalar Network.dyn_peer[138] 	lookupTimeSig:mean 	1.4
scalar Network.dyn_peer[138] 	lookupStabilitySig:mean 	0.75684370462679
scalar Network.dyn_peer[138] 	lookupHopsSig:mean 	13.111111111111
scalar Network.dyn_peer[139] 	lookupTimeSig:mean 	1.525
scalar Network.dyn_peer[139] 	lookupStabilitySig:mean 	0.35158072318882
scalar Network.dyn_peer[139] 	lookupHopsSig:mean 	14.5
scalar Network.dyn_peer[140] 	lookupTimeSig:mean 	1.2833333333333
scalar Network.dyn_peer[140] 	lookupStabilitySig:mean 	0.63122742219518
scalar Network.dyn_peer[140] 	lookupHopsSig:mean 	12
scalar Network.dyn_peer[141] 	lookupTimeSig:mean 	1.8
scalar Network.dyn_peer[141] 	lookupStabilitySig:mean 	0.86143812052906
scalar Network.dyn_peer[141] 	lookupHopsSig:mean 	17.2
scalar Network.dyn_peer[142] 	lookupTimeSig:mean 	1.5
scalar Network.dyn_peer[142] 	lookupStabilitySig:mean 	0.80522481799126
scalar Network.dyn_peer[142] 	lookupHopsSig:mean 	14.2
scalar Network.dyn_peer[143] 	lookupTimeSig:mean 	1.15
scalar Network.dyn_peer[143] 	lookupStabilitySig:mean 	0.63304246837894
scalar Network.dyn_peer[143] 	lookupHopsSig:mean 	10.666666666667
scalar Network.dyn_peer[144] 	lookupTimeSig:mean 	1.875
scalar Network.dyn_peer[144] 	lookupStabilitySig:mean 	0.65364878252149
scalar Network.dyn_peer[144] 	lookupHopsSig:mean 	18
scalar Network.dyn_peer[145] 	lookupTimeSig:mean 	2.6666666666667
scalar Network.dyn_peer[145] 	lookupStabilitySig:mean 	0.8013339402775
scalar Network.dyn_peer[145] 	lookupHopsSig:mean 	26
scalar Network.dyn_peer[146] 	lookupTimeSig:mean 	1.2111111111111
scalar Network.dyn_peer[146] 	lookupStabilitySig:mean 	0.74013305949565
scalar Network.dyn_peer[146] 	lookupHopsSig:mean 	11.222222222222
scalar Network.dyn_peer[147] 	lookupTimeSig:mean 	2.2333333333333
scalar Network.dyn_peer[147] 	lookupStabilitySig:mean 	0.92594768169026
scalar Network.dyn_peer[147] 	lookupHopsSig:mean 	21.5
scalar Network.dyn_peer[148] 	lookupTimeSig:mean 	1.925
scalar Network.dyn_peer[148] 	lookupStabilitySig:mean 	0.33942835964262
scalar Network.dyn_peer[148] 	lookupHopsSig:mean 	18.5
scalar Network.dyn_peer[149] 	lookupTimeSig:mean 	1.1666666666667
scalar Network.dyn_peer[149] 	lookupStabilitySig:mean 	0.61083620227873
scalar Network.dyn_peer[149] 	lookupHopsSig:mean 	10.833333333333
scalar Network.dyn_peer[150] 	lookupTimeSig:mean 	1.4545454545455
scalar Network.dyn_peer[150] 	lookupStabilitySig:mean 	0.89649909599261
scalar Network.dyn_peer[150] 	lookupHopsSig:mean 	13.636363636364
scalar Network.dyn_peer[151] 	lookupTimeSig:mean 	1.36
scalar Network.dyn_peer[151] 	lookupStabilitySig:mean 	0.5990032479167
scalar Network.dyn_peer[151] 	lookupHopsSig:mean 	12.8
scalar Network.dyn_peer[152] 	lookupTimeSig:mean 	1.3142857142857
scalar Network.dyn_peer[152] 	lookupStabilitySig:mean 	0.82808454813702
scalar Network.dyn_peer[152] 	lookupHopsSig:mean 	12.285714285714
scalar Network.dyn_peer[153] 	lookupTimeSig:mean 	0.98333333333333
scalar Network.dyn_peer[153] 	lookupStabilitySig:mean 	0.88079611219776
scalar Network.dyn_peer[153] 	lookupHopsSig:mean 	8.9166666666667
scalar Network.dyn_peer[154] 	lookupTimeSig:mean 	0.95
scalar Network.dyn_peer[154] 	lookupStabilitySig:mean 	0.31090785935521
scalar Network.dyn_peer[154] 	lookupHopsSig:mean 	8.75
scalar Network.dyn_peer[155] 	lookupTimeSig:mean 	1.2333333333333
scalar Network.dyn_peer[155] 	lookupStabilitySig:mean 	0.17518362992754
scalar Network.dyn_peer[155] 	lookupHopsSig:mean 	11.666666666667
scalar Network.dyn_peer[156] 	lookupTimeSig:mean 	1
scalar Network.dyn_peer[156] 	lookupStabilitySig:mean 	0.16797386544446
scalar Network.dyn_peer[156] 	lookupHopsSig:mean 	9.3333333333333
scalar Network.dyn_peer[157] 	lookupTimeSig:mean 	1.175
scalar Network.dyn_peer[157] 	lookupStabilitySig:mean 	0.25334290415049
scalar Network.dyn_peer[157] 	lookupHopsSig:mean 	11
scalar Network.dyn_peer[158] 	lookupTimeSig:mean 	1.5714285714286
scalar Network.dyn_peer[158] 	lookupStabilitySig:mean 	0.89716448315552
scalar Network.dyn_peer[158] 	lookupHopsSig:mean 	14.857142857143
scalar Network.dyn_peer[159] 	lookupTimeSig:mean 	1.275
scalar Network.dyn_peer[159] 	lookupStabilitySig:mean 	0.33525641541928
scalar Network.dyn_peer[159] 	lookupHopsSig:mean 	12
scalar Network.dyn_peer[160] 	lookupTimeSig:mean 	1.52
scalar Network.dyn_peer[160] 	lookupStabilitySig:mean 	0.54166363291442
scalar Network.dyn_peer[160] 	lookupHopsSig:mean 	14.4
scalar Network.dyn_peer[161] 	lookupTimeSig:mean 	2.2166666666667
scalar Network.dyn_peer[161] 	lookupStabilitySig:mean 	0.87560132145882
scalar Network.dyn_peer[161] 	lookupHopsSig:mean 	21.333333333333
scalar Network.dyn_peer[162] 	lookupTimeSig:mean 	1.45
scalar Network.dyn_peer[162] 	lookupStabilitySig:mean 	0.47226472944021
scalar Network.dyn_peer[162] 	lookupHopsSig:mean 	13.75
scalar Network.dyn_peer[163] 	lookupTimeSig:mean 	2.3333333333333
scalar Network.dyn_peer[163] 	lookupStabilitySig:mean 	0.26101819674174
scalar Network.dyn_peer[163] 	lookupHopsSig:mean 	22.666666666667
scalar Network.dyn_peer[164] 	lookupTimeSig:mean 	1.26
scalar Network.dyn_peer[164] 	lookupStabilitySig:mean 	0.9250440732576
scalar Network.dyn_peer[164] 	lookupHopsSig:mean 	11.7
scalar Network.dyn_peer[165] 	lookupTimeSig:mean 	1.1
scalar Network.dyn_peer[165] 	lookupStabilitySig:mean 	0.83357879295945
scalar Network.dyn_peer[165] 	lookupHopsSig:mean 	10.2
scalar Network.dyn_peer[166] 	lookupTimeSig:mean 	1.5571428571429
scalar Network.dyn_peer[166] 	lookupStabilitySig:mean 	0.78177278435656
scalar Network.dyn_peer[166] 	lookupHopsSig:mean 	14.714285714286
scalar Network.dyn_peer[167] 	lookupTimeSig:mean 	0.9
scalar Network.dyn_peer[167] 	lookupStabilitySig:mean 	0.73482508812514
scalar Network.dyn_peer[167] 	lookupHopsSig:mean 	8.1111111111111
scalar Network.dyn_peer[168] 	lookupTimeSig:mean 	1.3333333333333
scalar Network.dyn_peer[168] 	lookupStabilitySig:mean 	0.35906432320674
scalar Network.dyn_peer[168] 	lookupHopsSig:mean 	12.666666666667
scalar Network.dyn_peer[169] 	lookupTimeSig:mean 	1.4428571428571
scalar Network.dyn_peer[169] 	lookupStabilitySig:mean 	0.80807035775589
scalar Network.dyn_peer[169] 	lookupHopsSig:mean 	13.571428571429
scalar Network.dyn_peer[170] 	lookupTimeSig:mean 	1.62
scalar Network.dyn_peer[170] 	lookupStabilitySig:mean 	0.91874559456483
scalar Network.dyn_peer[170] 	lookupHopsSig:mean 	15.3
scalar Network.dyn_peer[171] 	lookupTimeSig:mean 	1.2714285714286
scalar Network.dyn_peer[171] 	lookupStabilitySig:mean 	0.80639310580279
scalar Network.dyn_peer[171] 	lookupHopsSig:mean 	11.857142857143
scalar Network.dyn_peer[172] 	lookupTimeSig:mean 	0.78571428571429
scalar Network.dyn_peer[172] 	lookupStabilitySig:mean 	0.62141935487411
scalar Network.dyn_peer[172] 	lookupHopsSig:mean 	7
scalar Network.dyn_peer[173] 	lookupTimeSig:mean 	2
scalar Network.dyn_peer[173] 	lookupStabilitySig:mean 	0.83582648169249
scalar Network.dyn_peer[173] 	lookupHopsSig:mean 	19.25
scalar Network.dyn_peer[174] 	lookupTimeSig:mean 	1.3
scalar Network.dyn_peer[174] 	lookupStabilitySig:mean 	0.62756923477476
scalar Network.dyn_peer[174] 	lookupHopsSig:mean 	12.166666666667
scalar Network.dyn_peer[175] 	lookupTimeSig:mean 	2.15
scalar Network.dyn_peer[175] 	lookupStabilitySig:mean 	0.041666686534882
scalar Network.dyn_peer[175] 	lookupHopsSig:mean 	21
scalar Network.dyn_peer[176] 	lookupTimeSig:mean 	1.46
scalar Network.dyn_peer[176] 	lookupStabilitySig:mean 	0.58064362108707
scalar Network.dyn_peer[176] 	lookupHopsSig:mean 	13.8
scalar Network.dyn_peer[177] 	lookupTimeSig:mean 	1.3
scalar Network.dyn_peer[177] 	lookupStabilitySig:mean 	0.30710350908339
scalar Network.dyn_peer[177] 	lookupHopsSig:mean 	12.25
scalar Network.dyn_peer[178] 	lookupTimeSig:mean 	3
scalar Network.dyn_peer[178] 	lookupStabilitySig:mean 	0.34626902888219
scalar Network.dyn_peer[178] 	lookupHopsSig:mean 	29.333333333333
scalar Network.dyn_peer[179] 	lookupTimeSig:mean 	1.52
scalar Network.dyn_peer[179] 	lookupStabilitySig:mean 	0.55255695134401
scalar Network.dyn_peer[179] 	lookupHopsSig:mean 	14.4
scalar Network.dyn_peer[180] 	lookupTimeSig:mean 	3.05
scalar Network.dyn_peer[180] 	lookupStabilitySig:mean 	0.59738244116306
scalar Network.dyn_peer[180] 	lookupHopsSig:mean 	30
scalar Network.dyn_peer[181] 	lookupTimeSig:mean 	2.05
scalar Network.dyn_peer[181] 	lookupStabilitySig:mean 	0.83671704865992
scalar Network.dyn_peer[181] 	lookupHopsSig:mean 	19.75
scalar Network.dyn_peer[182] 	lookupTimeSig:mean 	1.64
scalar Network.dyn_peer[182] 	lookupStabilitySig:mean 	0.82023054547608
scalar Network.dyn_peer[182] 	lookupHopsSig:mean 	15.6
scalar Network.dyn_peer[183] 	lookupTimeSig:mean 	1.32
scalar Network.dyn_peer[183] 	lookupStabilitySig:mean 	0.53236464485526
scalar Network.dyn_peer[183] 	lookupHopsSig:mean 	12.4
scalar Network.dyn_peer[184] 	lookupTimeSig:mean 	1.175
scalar Network.dyn_peer[184] 	lookupStabilitySig:mean 	0.38505748752505
scalar Network.dyn_peer[184] 	lookupHopsSig:mean 	11
scalar Network.dyn_peer[185] 	lookupTimeSig:mean 	1.2
scalar Network.dyn_peer[185] 	lookupStabilitySig:mean 	0.78524414662804
scalar Network.dyn_peer[185] 	lookupHopsSig:mean 	11.142857142857
scalar Network.dyn_peer[186] 	lookupTimeSig:mean 	1.7285714285714
scalar Network.dyn_peer[186] 	lookupStabilitySig:mean 	0.90695997726704
scalar Network.dyn_peer[186] 	lookupHopsSig:mean 	16.428571428571
scalar Network.dyn_peer[187] 	lookupTimeSig:mean 	1.21
scalar Network.dyn_peer[187] 	lookupStabilitySig:mean 	0.72258359286934
scalar Network.dyn_peer[187] 	lookupHopsSig:mean 	11.2
scalar Network.dyn_peer[188] 	lookupTimeSig:mean 	2.3666666666667
scalar Network.dyn_peer[188] 	lookupStabilitySig:mean 	0.72100122769674
scalar Network.dyn_peer[188] 	lookupHopsSig:mean 	23
scalar Network.dyn_peer[189] 	lookupTimeSig:mean 	1
scalar Network.dyn_peer[189] 	lookupStabilitySig:mean 	0.091891884803772
scalar Network.dyn_peer[189] 	lookupHopsSig:mean 	9.3333333333333
scalar Network.dyn_peer[190] 	lookupTimeSig:mean 	1.3
scalar Network.dyn_peer[190] 	lookupStabilitySig:mean 	0.33287672201792
scalar Network.dyn_peer[190] 	lookupHopsSig:mean 	12.333333333333
scalar Network.dyn_peer[191] 	lookupTimeSig:mean 	1.675
scalar Network.dyn_peer[191] 	lookupStabilitySig:mean 	0.45242383610457
scalar Network.dyn_peer[191] 	lookupHopsSig:mean 	16
scalar Network.dyn_peer[192] 	lookupTimeSig:mean 	1.5
scalar Network.dyn_peer[192] 	lookupStabilitySig:mean 	0.89451674973991
scalar Network.dyn_peer[192] 	lookupHopsSig:mean 	14.142857142857
scalar Network.dyn_peer[193] 	lookupTimeSig:mean 	2
scalar Network.dyn_peer[193] 	lookupStabilitySig:mean 	0.8406514847884
scalar Network.dyn_peer[193] 	lookupHopsSig:mean 	19.25
scalar Network.dyn_peer[194] 	lookupTimeSig:mean 	1.1
scalar Network.dyn_peer[194] 	lookupStabilitySig:mean 	0.13541668653488
scalar Network.dyn_peer[194] 	lookupHopsSig:mean 	10.5
scalar Network.dyn_peer[195] 	lookupTimeSig:mean 	2.4
scalar Network.dyn_peer[195] 	lookupStabilitySig:mean 	0.72779279823105
scalar Network.dyn_peer[195] 	lookupHopsSig:mean 	23.333333333333
scalar Network.dyn_peer[196] 	lookupTimeSig:mean 	1.15
scalar Network.dyn_peer[196] 	lookupStabilitySig:mean 	-0.22222223877907
scalar Network.dyn_peer[196] 	lookupHopsSig:mean 	11
scalar Network.dyn_peer[197] 	lookupTimeSig:mean 	1.7166666666667
scalar Network.dyn_peer[197] 	lookupStabilitySig:mean 	0.88240231263141
scalar Network.dyn_peer[197] 	lookupHopsSig:mean 	16.333333333333
scalar Network.dyn_peer[198] 	lookupTimeSig:mean 	1.3857142857143
scalar Network.dyn_peer[198] 	lookupStabilitySig:mean 	0.66225042380393
scalar Network.dyn_peer[198] 	lookupHopsSig:mean 	13
scalar Network.dyn_peer[199] 	lookupTimeSig:mean 	1.1222222222222
scalar Network.dyn_peer[199] 	lookupStabilitySig:mean 	0.7112071716951
scalar Network.dyn_peer[199] 	lookupHopsSig:mean 	10.333333333333
scalar Network.dyn_peer[200] 	lookupTimeSig:mean 	1.675
scalar Network.dyn_peer[200] 	lookupStabilitySig:mean 	0.49625130929053
scalar Network.dyn_peer[200] 	lookupHopsSig:mean 	16
scalar Network.dyn_peer[201] 	lookupTimeSig:mean 	2.7
scalar Network.dyn_peer[201] 	lookupStabilitySig:mean 	0.72781456261873
scalar Network.dyn_peer[201] 	lookupHopsSig:mean 	26.5
scalar Network.dyn_peer[202] 	lookupTimeSig:mean 	0.9
scalar Network.dyn_peer[202] 	lookupStabilitySig:mean 	0.54620123002678
scalar Network.dyn_peer[202] 	lookupHopsSig:mean 	8.25
scalar Network.dyn_peer[203] 	lookupTimeSig:mean 	1.4666666666667
scalar Network.dyn_peer[203] 	lookupStabilitySig:mean 	0.82182041462511
scalar Network.dyn_peer[203] 	lookupHopsSig:mean 	13.833333333333
scalar Network.dyn_peer[204] 	lookupTimeSig:mean 	1.48
scalar Network.dyn_peer[204] 	lookupStabilitySig:mean 	0.61538071557879
scalar Network.dyn_peer[204] 	lookupHopsSig:mean 	14
scalar Network.dyn_peer[205] 	lookupTimeSig:mean 	1.1615384615385
scalar Network.dyn_peer[205] 	lookupStabilitySig:mean 	0.79634627348815
scalar Network.dyn_peer[205] 	lookupHopsSig:mean 	10.692307692308
scalar Network.dyn_peer[206] 	lookupTimeSig:mean 	1.3571428571429
scalar Network.dyn_peer[206] 	lookupStabilitySig:mean 	0.58616420094456
scalar Network.dyn_peer[206] 	lookupHopsSig:mean 	12.714285714286
scalar Network.dyn_peer[207] 	lookupTimeSig:mean 	1.425
scalar Network.dyn_peer[207] 	lookupStabilitySig:mean 	0.41103600338101
scalar Network.dyn_peer[207] 	lookupHopsSig:mean 	13.5
scalar Network.dyn_peer[208] 	lookupTimeSig:mean 	2.125
scalar Network.dyn_peer[208] 	lookupStabilitySig:mean 	0.66285291593522
scalar Network.dyn_peer[208] 	lookupHopsSig:mean 	20.5
scalar Network.dyn_peer[209] 	lookupTimeSig:mean 	1.34
scalar Network.dyn_peer[209] 	lookupStabilitySig:mean 	0.58639661297202
scalar Network.dyn_peer[209] 	lookupHopsSig:mean 	12.6
scalar Network.dyn_peer[210] 	lookupTimeSig:mean 	1.5666666666667
scalar Network.dyn_peer[210] 	lookupStabilitySig:mean 	0.20141210903724
scalar Network.dyn_peer[210] 	lookupHopsSig:mean 	15
scalar Network.dyn_peer[211] 	lookupTimeSig:mean 	1.075
scalar Network.dyn_peer[211] 	lookupStabilitySig:mean 	0.38417058065534
scalar Network.dyn_peer[211] 	lookupHopsSig:mean 	10
scalar Network.dyn_peer[212] 	lookupTimeSig:mean 	1.725
scalar Network.dyn_peer[212] 	lookupStabilitySig:mean 	0.48063523694873
scalar Network.dyn_peer[212] 	lookupHopsSig:mean 	16.5
scalar Network.dyn_peer[213] 	lookupTimeSig:mean 	1.55
scalar Network.dyn_peer[213] 	lookupStabilitySig:mean 	0.52516967011616
scalar Network.dyn_peer[213] 	lookupHopsSig:mean 	14.75
scalar Network.dyn_peer[214] 	lookupTimeSig:mean 	1.15
scalar Network.dyn_peer[214] 	lookupStabilitySig:mean 	0.6801014264347
scalar Network.dyn_peer[214] 	lookupHopsSig:mean 	10.625
scalar Network.dyn_peer[215] 	lookupTimeSig:mean 	2.025
scalar Network.dyn_peer[215] 	lookupStabilitySig:mean 	0.39644554723054
scalar Network.dyn_peer[215] 	lookupHopsSig:mean 	19.5
scalar Network.dyn_peer[216] 	lookupTimeSig:mean 	1.6166666666667
scalar Network.dyn_peer[216] 	lookupStabilitySig:mean 	0.93407436840547
scalar Network.dyn_peer[216] 	lookupHopsSig:mean 	15.25
scalar Network.dyn_peer[217] 	lookupTimeSig:mean 	1.4555555555556
scalar Network.dyn_peer[217] 	lookupStabilitySig:mean 	0.88718538317415
scalar Network.dyn_peer[217] 	lookupHopsSig:mean 	13.666666666667
scalar Network.dyn_peer[218] 	lookupTimeSig:mean 	1.2428571428571
scalar Network.dyn_peer[218] 	lookupStabilitySig:mean 	0.88582734683795
scalar Network.dyn_peer[218] 	lookupHopsSig:mean 	11.571428571429
scalar Network.dyn_peer[219] 	lookupTimeSig:mean 	1.6
scalar Network.dyn_peer[219] 	lookupStabilitySig:mean 	0.52522790431976
scalar Network.dyn_peer[219] 	lookupHopsSig:mean 	15.333333333333
scalar Network.dyn_peer[220] 	lookupTimeSig:mean 	1.5
scalar Network.dyn_peer[220] 	lookupStabilitySig:mean 	0.48185118474066
scalar Network.dyn_peer[220] 	lookupHopsSig:mean 	14.25
scalar Network.dyn_peer[221] 	lookupTimeSig:mean 	1.0625
scalar Network.dyn_peer[221] 	lookupStabilitySig:mean 	0.69506367971189
scalar Network.dyn_peer[221] 	lookupHopsSig:mean 	9.75
scalar Network.dyn_peer[222] 	lookupTimeSig:mean 	1.3454545454545
scalar Network.dyn_peer[222] 	lookupStabilitySig:mean 	0.72269054781646
scalar Network.dyn_peer[222] 	lookupHopsSig:mean 	12.545454545455
scalar Network.dyn_peer[223] 	lookupTimeSig:mean 	1.4625
scalar Network.dyn_peer[223] 	lookupStabilitySig:mean 	0.95679153793026
scalar Network.dyn_peer[223] 	lookupHopsSig:mean 	13.6875
scalar Network.dyn_peer[224] 	lookupTimeSig:mean 	1.49
scalar Network.dyn_peer[224] 	lookupStabilitySig:mean 	0.72641311585903
scalar Network.dyn_peer[224] 	lookupHopsSig:mean 	14
scalar Network.dyn_peer[225] 	lookupTimeSig:mean 	1.48
scalar Network.dyn_peer[225] 	lookupStabilitySig:mean 	0.8271467840299
scalar Network.dyn_peer[225] 	lookupHopsSig:mean 	14
scalar Network.dyn_peer[226] 	lookupTimeSig:mean 	3
scalar Network.dyn_peer[226] 	lookupStabilitySig:mean 	0.36423790827394
scalar Network.dyn_peer[226] 	lookupHopsSig:mean 	29.333333333333
scalar Network.dyn_peer[227] 	lookupTimeSig:mean 	1.2142857142857
scalar Network.dyn_peer[227] 	lookupStabilitySig:mean 	0.66786892898381
scalar Network.dyn_peer[227] 	lookupHopsSig:mean 	11.285714285714
scalar Network.dyn_peer[228] 	lookupTimeSig:mean 	1.8333333333333
scalar Network.dyn_peer[228] 	lookupStabilitySig:mean 	0.87844602670521
scalar Network.dyn_peer[228] 	lookupHopsSig:mean 	17.5
scalar Network.dyn_peer[229] 	lookupTimeSig:mean 	3.8
scalar Network.dyn_peer[229] 	lookupStabilitySig:mean 	0.71734617650509
scalar Network.dyn_peer[229] 	lookupHopsSig:mean 	37.5
scalar Network.dyn_peer[230] 	lookupTimeSig:mean 	1
scalar Network.dyn_peer[230] 	lookupStabilitySig:mean 	0.30970195680857
scalar Network.dyn_peer[230] 	lookupHopsSig:mean 	9.25
scalar Network.dyn_peer[231] 	lookupTimeSig:mean 	1.0888888888889
scalar Network.dyn_peer[231] 	lookupStabilitySig:mean 	0.91123787562052
scalar Network.dyn_peer[231] 	lookupHopsSig:mean 	10
scalar Network.dyn_peer[232] 	lookupTimeSig:mean 	1.9285714285714
scalar Network.dyn_peer[232] 	lookupStabilitySig:mean 	0.9216565048056
scalar Network.dyn_peer[232] 	lookupHopsSig:mean 	18.428571428571
scalar Network.dyn_peer[233] 	lookupTimeSig:mean 	2.8
scalar Network.dyn_peer[233] 	lookupStabilitySig:mean 	0.75561962276697
scalar Network.dyn_peer[233] 	lookupHopsSig:mean 	27.333333333333
scalar Network.dyn_peer[234] 	lookupTimeSig:mean 	1.675
scalar Network.dyn_peer[234] 	lookupStabilitySig:mean 	0.73635910637677
scalar Network.dyn_peer[234] 	lookupHopsSig:mean 	16
scalar Network.dyn_peer[235] 	lookupTimeSig:mean 	0.8
scalar Network.dyn_peer[235] 	lookupStabilitySig:mean 	0.58216748088598
scalar Network.dyn_peer[235] 	lookupHopsSig:mean 	7.2
scalar Network.dyn_peer[236] 	lookupTimeSig:mean 	1.3
scalar Network.dyn_peer[236] 	lookupStabilitySig:mean 	0.48938409425318
scalar Network.dyn_peer[236] 	lookupHopsSig:mean 	12.25
scalar Network.dyn_peer[237] 	lookupTimeSig:mean 	2.05
scalar Network.dyn_peer[237] 	lookupStabilitySig:mean 	0.86768792880078
scalar Network.dyn_peer[237] 	lookupHopsSig:mean 	19.666666666667
scalar Network.dyn_peer[238] 	lookupTimeSig:mean 	0.45
scalar Network.dyn_peer[238] 	lookupStabilitySig:mean 	0.19999998807907
scalar Network.dyn_peer[238] 	lookupHopsSig:mean 	4
scalar Network.dyn_peer[239] 	lookupTimeSig:mean 	2.2
scalar Network.dyn_peer[239] 	lookupStabilitySig:mean 	0.63747553247958
scalar Network.dyn_peer[239] 	lookupHopsSig:mean 	21.25
scalar Network.dyn_peer[240] 	lookupTimeSig:mean 	0.9
scalar Network.dyn_peer[240] 	lookupStabilitySig:mean 	0.54371235830088
scalar Network.dyn_peer[240] 	lookupHopsSig:mean 	8.1666666666667
scalar Network.dyn_peer[241] 	lookupTimeSig:mean 	1.86
scalar Network.dyn_peer[241] 	lookupStabilitySig:mean 	0.59791641943157
scalar Network.dyn_peer[241] 	lookupHopsSig:mean 	17.8
scalar Network.dyn_peer[242] 	lookupTimeSig:mean 	3.1
scalar Network.dyn_peer[242] 	lookupStabilitySig:mean 	0.71112069487572
scalar Network.dyn_peer[242] 	lookupHopsSig:mean 	30.5
scalar Network.dyn_peer[243] 	lookupTimeSig:mean 	1.2166666666667
scalar Network.dyn_peer[243] 	lookupStabilitySig:mean 	0.61443185868363
scalar Network.dyn_peer[243] 	lookupHopsSig:mean 	11.333333333333
scalar Network.dyn_peer[244] 	lookupTimeSig:mean 	1.775
scalar Network.dyn_peer[244] 	lookupStabilitySig:mean 	0.69538979325444
scalar Network.dyn_peer[244] 	lookupHopsSig:mean 	17
scalar Network.dyn_peer[245] 	lookupTimeSig:mean 	1.3333333333333
scalar Network.dyn_peer[245] 	lookupStabilitySig:mean 	0.73012576531619
scalar Network.dyn_peer[245] 	lookupHopsSig:mean 	12.5
scalar Network.dyn_peer[246] 	lookupTimeSig:mean 	1.4888888888889
scalar Network.dyn_peer[246] 	lookupStabilitySig:mean 	0.93059140943094
scalar Network.dyn_peer[246] 	lookupHopsSig:mean 	14
scalar Network.dyn_peer[247] 	lookupTimeSig:mean 	2.1
scalar Network.dyn_peer[247] 	lookupStabilitySig:mean 	0.69853708706796
scalar Network.dyn_peer[247] 	lookupHopsSig:mean 	20.5
scalar Network.dyn_peer[248] 	lookupTimeSig:mean 	1.94
scalar Network.dyn_peer[248] 	lookupStabilitySig:mean 	0.92454639992211
scalar Network.dyn_peer[248] 	lookupHopsSig:mean 	18.5
scalar Network.dyn_peer[249] 	lookupTimeSig:mean 	2.55
scalar Network.dyn_peer[249] 	lookupStabilitySig:mean 	0.72878119722009
scalar Network.dyn_peer[249] 	lookupHopsSig:mean 	25
scalar Network.dyn_peer[250] 	lookupTimeSig:mean 	1.6666666666667
scalar Network.dyn_peer[250] 	lookupStabilitySig:mean 	0.43002370248238
scalar Network.dyn_peer[250] 	lookupHopsSig:mean 	16
scalar Network.dyn_peer[251] 	lookupTimeSig:mean 	1.4333333333333
scalar Network.dyn_peer[251] 	lookupStabilitySig:mean 	0.90821839155008
scalar Network.dyn_peer[251] 	lookupHopsSig:mean 	13.444444444444
scalar Network.dyn_peer[252] 	lookupTimeSig:mean 	0.6
scalar Network.dyn_peer[252] 	lookupStabilitySig:mean 	0.49574484527111
scalar Network.dyn_peer[252] 	lookupHopsSig:mean 	5.2
scalar Network.dyn_peer[253] 	lookupTimeSig:mean 	2.1
scalar Network.dyn_peer[253] 	lookupStabilitySig:mean 	0.75976430128018
scalar Network.dyn_peer[253] 	lookupHopsSig:mean 	20.333333333333
scalar Network.dyn_peer[254] 	lookupTimeSig:mean 	1.95
scalar Network.dyn_peer[254] 	lookupStabilitySig:mean 	0.60714285448194
scalar Network.dyn_peer[254] 	lookupHopsSig:mean 	19
scalar Network.dyn_peer[255] 	lookupTimeSig:mean 	1.9375
scalar Network.dyn_peer[255] 	lookupStabilitySig:mean 	0.94053225207608
scalar Network.dyn_peer[255] 	lookupHopsSig:mean 	18.5
scalar Network.dyn_peer[256] 	lookupTimeSig:mean 	1.8666666666667
scalar Network.dyn_peer[256] 	lookupStabilitySig:mean 	0.74661958962679
scalar Network.dyn_peer[256] 	lookupHopsSig:mean 	18
scalar Network.dyn_peer[257] 	lookupTimeSig:mean 	1.475
scalar Network.dyn_peer[257] 	lookupStabilitySig:mean 	0.72288054041564
scalar Network.dyn_peer[257] 	lookupHopsSig:mean 	14
scalar Network.dyn_peer[258] 	lookupTimeSig:mean 	1.76
scalar Network.dyn_peer[258] 	lookupStabilitySig:mean 	0.73359713964164
scalar Network.dyn_peer[258] 	lookupHopsSig:mean 	16.8
scalar Network.dyn_peer[259] 	lookupTimeSig:mean 	1.5857142857143
scalar Network.dyn_peer[259] 	lookupStabilitySig:mean 	0.67112707187022
scalar Network.dyn_peer[259] 	lookupHopsSig:mean 	15
scalar Network.dyn_peer[260] 	lookupTimeSig:mean 	1.88
scalar Network.dyn_peer[260] 	lookupStabilitySig:mean 	0.57198023721576
scalar Network.dyn_peer[260] 	lookupHopsSig:mean 	18
scalar Network.dyn_peer[261] 	lookupTimeSig:mean 	1.4333333333333
scalar Network.dyn_peer[261] 	lookupStabilitySig:mean 	0.36141122629245
scalar Network.dyn_peer[261] 	lookupHopsSig:mean 	13.666666666667
scalar Network.dyn_peer[262] 	lookupTimeSig:mean 	1.1333333333333
scalar Network.dyn_peer[262] 	lookupStabilitySig:mean 	0.62789653443421
scalar Network.dyn_peer[262] 	lookupHopsSig:mean 	10.5
scalar Network.dyn_peer[263] 	lookupTimeSig:mean 	1.6625
scalar Network.dyn_peer[263] 	lookupStabilitySig:mean 	0.92366374714766
scalar Network.dyn_peer[263] 	lookupHopsSig:mean 	15.75
scalar Network.dyn_peer[264] 	lookupTimeSig:mean 	2.7
scalar Network.dyn_peer[264] 	lookupStabilitySig:mean 	0.8497975282371
scalar Network.dyn_peer[264] 	lookupHopsSig:mean 	26.333333333333
scalar Network.dyn_peer[265] 	lookupTimeSig:mean 	1.5555555555556
scalar Network.dyn_peer[265] 	lookupStabilitySig:mean 	0.909704444723
scalar Network.dyn_peer[265] 	lookupHopsSig:mean 	14.666666666667
scalar Network.dyn_peer[266] 	lookupTimeSig:mean 	2
scalar Network.dyn_peer[266] 	lookupStabilitySig:mean 	0.79437231769164
scalar Network.dyn_peer[266] 	lookupHopsSig:mean 	19.333333333333
scalar Network.dyn_peer[267] 	lookupTimeSig:mean 	0.925
scalar Network.dyn_peer[267] 	lookupStabilitySig:mean 	0.7928435295471
scalar Network.dyn_peer[267] 	lookupHopsSig:mean 	8.375
scalar Network.dyn_peer[268] 	lookupTimeSig:mean 	1.78
scalar Network.dyn_peer[268] 	lookupStabilitySig:mean 	0.93975695366971
scalar Network.dyn_peer[268] 	lookupHopsSig:mean 	16.9
scalar Network.dyn_peer[269] 	lookupTimeSig:mean 	3.2
scalar Network.dyn_peer[269] 	lookupStabilitySig:mean 	0.7323030680418
scalar Network.dyn_peer[269] 	lookupHopsSig:mean 	31.5
scalar Network.dyn_peer[270] 	lookupTimeSig:mean 	2.2
scalar Network.dyn_peer[270] 	lookupStabilitySig:mean 	0.83577993512154
scalar Network.dyn_peer[270] 	lookupHopsSig:mean 	21.25
scalar Network.dyn_peer[271] 	lookupTimeSig:mean 	1.975
scalar Network.dyn_peer[271] 	lookupStabilitySig:mean 	0.87442073272541
scalar Network.dyn_peer[271] 	lookupHopsSig:mean 	19
scalar Network.dyn_peer[272] 	lookupTimeSig:mean 	1.2833333333333
scalar Network.dyn_peer[272] 	lookupStabilitySig:mean 	0.85262812119133
scalar Network.dyn_peer[272] 	lookupHopsSig:mean 	12
scalar Network.dyn_peer[273] 	lookupTimeSig:mean 	1.1111111111111
scalar Network.dyn_peer[273] 	lookupStabilitySig:mean 	0.91282996452517
scalar Network.dyn_peer[273] 	lookupHopsSig:mean 	10.222222222222
scalar Network.dyn_peer[274] 	lookupTimeSig:mean 	1.42
scalar Network.dyn_peer[274] 	lookupStabilitySig:mean 	0.82924641445279
scalar Network.dyn_peer[274] 	lookupHopsSig:mean 	13.4
scalar Network.dyn_peer[275] 	lookupTimeSig:mean 	1.3
scalar Network.dyn_peer[275] 	lookupStabilitySig:mean 	0.71424600854516
scalar Network.dyn_peer[275] 	lookupHopsSig:mean 	12.111111111111
scalar Network.dyn_peer[276] 	lookupTimeSig:mean 	1.64
scalar Network.dyn_peer[276] 	lookupStabilitySig:mean 	0.64325984492898
scalar Network.dyn_peer[276] 	lookupHopsSig:mean 	15.6
scalar Network.dyn_peer[277] 	lookupTimeSig:mean 	1.1142857142857
scalar Network.dyn_peer[277] 	lookupStabilitySig:mean 	0.86145452712663
scalar Network.dyn_peer[277] 	lookupHopsSig:mean 	10.214285714286
scalar Network.dyn_peer[278] 	lookupTimeSig:mean 	1.56
scalar Network.dyn_peer[278] 	lookupStabilitySig:mean 	0.68460198566318
scalar Network.dyn_peer[278] 	lookupHopsSig:mean 	14.8
scalar Network.dyn_peer[279] 	lookupTimeSig:mean 	1.7375
scalar Network.dyn_peer[279] 	lookupStabilitySig:mean 	0.87317940662615
scalar Network.dyn_peer[279] 	lookupHopsSig:mean 	16.5
scalar Network.dyn_peer[280] 	lookupTimeSig:mean 	1.9
scalar Network.dyn_peer[280] 	lookupStabilitySig:mean 	0.78709211448828
scalar Network.dyn_peer[280] 	lookupHopsSig:mean 	18.333333333333
scalar Network.dyn_peer[281] 	lookupTimeSig:mean 	2.14
scalar Network.dyn_peer[281] 	lookupStabilitySig:mean 	0.84562851190567
scalar Network.dyn_peer[281] 	lookupHopsSig:mean 	20.6
scalar Network.dyn_peer[282] 	lookupTimeSig:mean 	1.3285714285714
scalar Network.dyn_peer[282] 	lookupStabilitySig:mean 	0.9509610309698
scalar Network.dyn_peer[282] 	lookupHopsSig:mean 	12.357142857143
scalar Network.dyn_peer[283] 	lookupTimeSig:mean 	0.45
scalar Network.dyn_peer[283] 	lookupStabilitySig:mean 	0.43917749449611
scalar Network.dyn_peer[283] 	lookupHopsSig:mean 	3.75
scalar Network.dyn_peer[284] 	lookupTimeSig:mean 	2.2
scalar Network.dyn_peer[284] 	lookupStabilitySig:mean 	0.77747678011656
scalar Network.dyn_peer[284] 	lookupHopsSig:mean 	21.333333333333
scalar Network.dyn_peer[285] 	lookupTimeSig:mean 	2.15
scalar Network.dyn_peer[285] 	lookupStabilitySig:mean 	0.85276935901493
scalar Network.dyn_peer[285] 	lookupHopsSig:mean 	20.75
scalar Network.dyn_peer[286] 	lookupTimeSig:mean 	2.5
scalar Network.dyn_peer[286] 	lookupStabilitySig:mean 	0.12121212482452
scalar Network.dyn_peer[286] 	lookupHopsSig:mean 	24.5
scalar Network.dyn_peer[287] 	lookupTimeSig:mean 	1.2125
scalar Network.dyn_peer[287] 	lookupStabilitySig:mean 	0.68447378417477
scalar Network.dyn_peer[287] 	lookupHopsSig:mean 	11.25
scalar Network.dyn_peer[288] 	lookupTimeSig:mean 	1.5833333333333
scalar Network.dyn_peer[288] 	lookupStabilitySig:mean 	0.6909682204326
scalar Network.dyn_peer[288] 	lookupHopsSig:mean 	15
scalar Network.dyn_peer[289] 	lookupTimeSig:mean 	1.75
scalar Network.dyn_peer[289] 	lookupStabilitySig:mean 	0.85122600919567
scalar Network.dyn_peer[289] 	lookupHopsSig:mean 	16.75
scalar Network.dyn_peer[290] 	lookupTimeSig:mean 	1.1571428571429
scalar Network.dyn_peer[290] 	lookupStabilitySig:mean 	0.60780914739839
scalar Network.dyn_peer[290] 	lookupHopsSig:mean 	10.714285714286
scalar Network.dyn_peer[291] 	lookupTimeSig:mean 	1.55
scalar Network.dyn_peer[291] 	lookupStabilitySig:mean 	0.52756168041378
scalar Network.dyn_peer[291] 	lookupHopsSig:mean 	14.75
scalar Network.dyn_peer[292] 	lookupTimeSig:mean 	1.7285714285714
scalar Network.dyn_peer[292] 	lookupStabilitySig:mean 	0.79778529570571
scalar Network.dyn_peer[292] 	lookupHopsSig:mean 	16.428571428571
scalar Network.dyn_peer[293] 	lookupTimeSig:mean 	2.0333333333333
scalar Network.dyn_peer[293] 	lookupStabilitySig:mean 	0.28276987746358
scalar Network.dyn_peer[293] 	lookupHopsSig:mean 	19.666666666667
scalar Network.dyn_peer[294] 	lookupTimeSig:mean 	2.4
scalar Network.dyn_peer[294] 	lookupStabilitySig:mean 	0.2174937526385
scalar Network.dyn_peer[294] 	lookupHopsSig:mean 	23.333333333333
scalar Network.dyn_peer[295] 	lookupTimeSig:mean 	1.1777777777778
scalar Network.dyn_peer[295] 	lookupStabilitySig:mean 	0.85276778999509
scalar Network.dyn_peer[295] 	lookupHopsSig:mean 	10.888888888889
scalar Network.dyn_peer[296] 	lookupTimeSig:mean 	2.1333333333333
scalar Network.dyn_peer[296] 	lookupStabilitySig:mean 	0.79439945581059
scalar Network.dyn_peer[296] 	lookupHopsSig:mean 	20.666666666667
scalar Network.dyn_peer[297] 	lookupTimeSig:mean 	1.6333333333333
scalar Network.dyn_peer[297] 	lookupStabilitySig:mean 	0.23668011277914
scalar Network.dyn_peer[297] 	lookupHopsSig:mean 	15.666666666667
scalar Network.dyn_peer[298] 	lookupTimeSig:mean 	1.3833333333333
scalar Network.dyn_peer[298] 	lookupStabilitySig:mean 	0.87191546413427
scalar Network.dyn_peer[298] 	lookupHopsSig:mean 	13
scalar Network.dyn_peer[299] 	lookupTimeSig:mean 	1.525
scalar Network.dyn_peer[299] 	lookupStabilitySig:mean 	0.41401222907007
scalar Network.dyn_peer[299] 	lookupHopsSig:mean 	14.5
scalar Network.dyn_peer[300] 	lookupTimeSig:mean 	2.5
scalar Network.dyn_peer[300] 	lookupStabilitySig:mean 	0.67432369291782
scalar Network.dyn_peer[300] 	lookupHopsSig:mean 	24.5
scalar Network.dyn_peer[301] 	lookupTimeSig:mean 	1.5166666666667
scalar Network.dyn_peer[301] 	lookupStabilitySig:mean 	0.83809025306255
scalar Network.dyn_peer[301] 	lookupHopsSig:mean 	14.333333333333
scalar Network.dyn_peer[302] 	lookupTimeSig:mean 	2.1
scalar Network.dyn_peer[302] 	lookupStabilitySig:mean 	0.2118279337883
scalar Network.dyn_peer[302] 	lookupHopsSig:mean 	20.5
scalar Network.dyn_peer[303] 	lookupTimeSig:mean 	1.18
scalar Network.dyn_peer[303] 	lookupStabilitySig:mean 	0.62197063341737
scalar Network.dyn_peer[303] 	lookupHopsSig:mean 	11
scalar Network.dyn_peer[304] 	lookupTimeSig:mean 	1.1428571428571
scalar Network.dyn_peer[304] 	lookupStabilitySig:mean 	0.81154818832874
scalar Network.dyn_peer[304] 	lookupHopsSig:mean 	10.571428571429
scalar Network.dyn_peer[305] 	lookupTimeSig:mean 	0.575
scalar Network.dyn_peer[305] 	lookupStabilitySig:mean 	0.40789473429322
scalar Network.dyn_peer[305] 	lookupHopsSig:mean 	5
scalar Network.dyn_peer[306] 	lookupTimeSig:mean 	2.1
scalar Network.dyn_peer[306] 	lookupStabilitySig:mean 	0.21382977068424
scalar Network.dyn_peer[306] 	lookupHopsSig:mean 	20.5
scalar Network.dyn_peer[307] 	lookupTimeSig:mean 	1.7
scalar Network.dyn_peer[307] 	lookupStabilitySig:mean 	0.69378051459789
scalar Network.dyn_peer[307] 	lookupHopsSig:mean 	16.2
scalar Network.dyn_peer[308] 	lookupTimeSig:mean 	1.51
scalar Network.dyn_peer[308] 	lookupStabilitySig:mean 	0.92457391479984
scalar Network.dyn_peer[308] 	lookupHopsSig:mean 	14.2
scalar Network.dyn_peer[309] 	lookupTimeSig:mean 	2.15
scalar Network.dyn_peer[309] 	lookupStabilitySig:mean 	0.42647058516741
scalar Network.dyn_peer[309] 	lookupHopsSig:mean 	21
scalar Network.dyn_peer[310] 	lookupTimeSig:mean 	1.7666666666667
scalar Network.dyn_peer[310] 	lookupStabilitySig:mean 	0.75394736230373
scalar Network.dyn_peer[310] 	lookupHopsSig:mean 	17
scalar Network.dyn_peer[311] 	lookupTimeSig:mean 	2.02
scalar Network.dyn_peer[311] 	lookupStabilitySig:mean 	0.92001075409353
scalar Network.dyn_peer[311] 	lookupHopsSig:mean 	19.4
scalar Network.dyn_peer[312] 	lookupTimeSig:mean 	1.2857142857143
scalar Network.dyn_peer[312] 	lookupStabilitySig:mean 	0.68743096797594
scalar Network.dyn_peer[312] 	lookupHopsSig:mean 	12
scalar Network.dyn_peer[313] 	lookupTimeSig:mean 	1.32
scalar Network.dyn_peer[313] 	lookupStabilitySig:mean 	0.60534666851163
scalar Network.dyn_peer[313] 	lookupHopsSig:mean 	12.4
scalar Network.dyn_peer[314] 	lookupTimeSig:mean 	1.85
scalar Network.dyn_peer[314] 	lookupStabilitySig:mean 	0.64287427254021
scalar Network.dyn_peer[314] 	lookupHopsSig:mean 	17.75
scalar Network.dyn_peer[315] 	lookupTimeSig:mean 	0.62857142857143
scalar Network.dyn_peer[315] 	lookupStabilitySig:mean 	0.63605499480452
scalar Network.dyn_peer[315] 	lookupHopsSig:mean 	5.4285714285714
scalar Network.dyn_peer[316] 	lookupTimeSig:mean 	2.3333333333333
scalar Network.dyn_peer[316] 	lookupStabilitySig:mean 	0.27436770498753
scalar Network.dyn_peer[316] 	lookupHopsSig:mean 	22.666666666667
scalar Network.dyn_peer[317] 	lookupTimeSig:mean 	1.5875
scalar Network.dyn_peer[317] 	lookupStabilitySig:mean 	0.72737825638615
scalar Network.dyn_peer[317] 	lookupHopsSig:mean 	15
scalar Network.dyn_peer[318] 	lookupTimeSig:mean 	1.2777777777778
scalar Network.dyn_peer[318] 	lookupStabilitySig:mean 	0.93722117772429
scalar Network.dyn_peer[318] 	lookupHopsSig:mean 	11.888888888889
scalar Network.dyn_peer[319] 	lookupTimeSig:mean 	1.48
scalar Network.dyn_peer[319] 	lookupStabilitySig:mean 	0.47527983486652
scalar Network.dyn_peer[319] 	lookupHopsSig:mean 	14
scalar Network.dyn_peer[320] 	lookupTimeSig:mean 	1.9
scalar Network.dyn_peer[320] 	lookupStabilitySig:mean 	0.60576872962217
scalar Network.dyn_peer[320] 	lookupHopsSig:mean 	18.166666666667
scalar Network.dyn_peer[321] 	lookupTimeSig:mean 	2.2333333333333
scalar Network.dyn_peer[321] 	lookupStabilitySig:mean 	0.84185287108024
scalar Network.dyn_peer[321] 	lookupHopsSig:mean 	21.666666666667
scalar Network.dyn_peer[322] 	lookupTimeSig:mean 	1.5
scalar Network.dyn_peer[322] 	lookupStabilitySig:mean 	0.23710318903128
scalar Network.dyn_peer[322] 	lookupHopsSig:mean 	14.333333333333
scalar Network.dyn_peer[323] 	lookupTimeSig:mean 	1.975
scalar Network.dyn_peer[323] 	lookupStabilitySig:mean 	0.92797164223157
scalar Network.dyn_peer[323] 	lookupHopsSig:mean 	18.875
scalar Network.dyn_peer[324] 	lookupTimeSig:mean 	1.0857142857143
scalar Network.dyn_peer[324] 	lookupStabilitySig:mean 	0.77441825504814
scalar Network.dyn_peer[324] 	lookupHopsSig:mean 	10
scalar Network.dyn_peer[325] 	lookupTimeSig:mean 	1.1857142857143
scalar Network.dyn_peer[325] 	lookupStabilitySig:mean 	0.64723027284656
scalar Network.dyn_peer[325] 	lookupHopsSig:mean 	11
scalar Network.dyn_peer[326] 	lookupTimeSig:mean 	1.4
scalar Network.dyn_peer[326] 	lookupStabilitySig:mean 	0.37848787258069
scalar Network.dyn_peer[326] 	lookupHopsSig:mean 	13.333333333333
scalar Network.dyn_peer[327] 	lookupTimeSig:mean 	1.86
scalar Network.dyn_peer[327] 	lookupStabilitySig:mean 	0.53117046579719
scalar Network.dyn_peer[327] 	lookupHopsSig:mean 	17.8
scalar Network.dyn_peer[328] 	lookupTimeSig:mean 	1.5666666666667
scalar Network.dyn_peer[328] 	lookupStabilitySig:mean 	0.16912444432576
scalar Network.dyn_peer[328] 	lookupHopsSig:mean 	15
scalar Network.dyn_peer[329] 	lookupTimeSig:mean 	2.2333333333333
scalar Network.dyn_peer[329] 	lookupStabilitySig:mean 	0.91061716821666
scalar Network.dyn_peer[329] 	lookupHopsSig:mean 	21.5
scalar Network.dyn_peer[330] 	lookupTimeSig:mean 	1.9333333333333
scalar Network.dyn_peer[330] 	lookupStabilitySig:mean 	0.6358941073219
scalar Network.dyn_peer[330] 	lookupHopsSig:mean 	18.666666666667
scalar Network.dyn_peer[331] 	lookupTimeSig:mean 	1.35
scalar Network.dyn_peer[331] 	lookupStabilitySig:mean 	0.17460315674543
scalar Network.dyn_peer[331] 	lookupHopsSig:mean 	13
scalar Network.dyn_peer[332] 	lookupTimeSig:mean 	1.3
scalar Network.dyn_peer[332] 	lookupStabilitySig:mean 	0.6373946685344
scalar Network.dyn_peer[332] 	lookupHopsSig:mean 	12.166666666667
scalar Network.dyn_peer[333] 	lookupTimeSig:mean 	1.5857142857143
scalar Network.dyn_peer[333] 	lookupStabilitySig:mean 	0.92593351006508
scalar Network.dyn_peer[333] 	lookupHopsSig:mean 	15
scalar Network.dyn_peer[334] 	lookupTimeSig:mean 	1.7
scalar Network.dyn_peer[334] 	lookupStabilitySig:mean 	0.50010287668556
scalar Network.dyn_peer[334] 	lookupHopsSig:mean 	16.25
scalar Network.dyn_peer[335] 	lookupTimeSig:mean 	1.9
scalar Network.dyn_peer[335] 	lookupStabilitySig:mean 	0.33040541410446
scalar Network.dyn_peer[335] 	lookupHopsSig:mean 	18.5
scalar Network.dyn_peer[336] 	lookupTimeSig:mean 	1.6571428571429
scalar Network.dyn_peer[336] 	lookupStabilitySig:mean 	0.6658946209188
scalar Network.dyn_peer[336] 	lookupHopsSig:mean 	15.714285714286
scalar Network.dyn_peer[337] 	lookupTimeSig:mean 	2.125
scalar Network.dyn_peer[337] 	lookupStabilitySig:mean 	0.8649833817035
scalar Network.dyn_peer[337] 	lookupHopsSig:mean 	20.5
scalar Network.dyn_peer[338] 	lookupTimeSig:mean 	1.4714285714286
scalar Network.dyn_peer[338] 	lookupStabilitySig:mean 	0.72208432380908
scalar Network.dyn_peer[338] 	lookupHopsSig:mean 	13.857142857143
scalar Network.dyn_peer[339] 	lookupTimeSig:mean 	1.38
scalar Network.dyn_peer[339] 	lookupStabilitySig:mean 	0.83312749546021
scalar Network.dyn_peer[339] 	lookupHopsSig:mean 	13
scalar Network.dyn_peer[340] 	lookupTimeSig:mean 	2.18
scalar Network.dyn_peer[340] 	lookupStabilitySig:mean 	0.89945813789964
scalar Network.dyn_peer[340] 	lookupHopsSig:mean 	21
scalar Network.dyn_peer[341] 	lookupTimeSig:mean 	2.2
scalar Network.dyn_peer[341] 	lookupStabilitySig:mean 	0.73227662704885
scalar Network.dyn_peer[341] 	lookupHopsSig:mean 	21.2
scalar Network.dyn_peer[342] 	lookupTimeSig:mean 	1.86
scalar Network.dyn_peer[342] 	lookupStabilitySig:mean 	0.7096104837954
scalar Network.dyn_peer[342] 	lookupHopsSig:mean 	17.8
scalar Network.dyn_peer[343] 	lookupTimeSig:mean 	1.4333333333333
scalar Network.dyn_peer[343] 	lookupStabilitySig:mean 	0.68852631965031
scalar Network.dyn_peer[343] 	lookupHopsSig:mean 	13.5
scalar Network.dyn_peer[344] 	lookupTimeSig:mean 	0.81428571428571
scalar Network.dyn_peer[344] 	lookupStabilitySig:mean 	0.71652507901724
scalar Network.dyn_peer[344] 	lookupHopsSig:mean 	7.2857142857143
scalar Network.dyn_peer[345] 	lookupTimeSig:mean 	1.4363636363636
scalar Network.dyn_peer[345] 	lookupStabilitySig:mean 	0.9190241759643
scalar Network.dyn_peer[345] 	lookupHopsSig:mean 	13.454545454545
scalar Network.dyn_peer[346] 	lookupTimeSig:mean 	1.48
scalar Network.dyn_peer[346] 	lookupStabilitySig:mean 	0.81817314550281
scalar Network.dyn_peer[346] 	lookupHopsSig:mean 	14
scalar Network.dyn_peer[347] 	lookupTimeSig:mean 	1.5
scalar Network.dyn_peer[347] 	lookupStabilitySig:mean 	0.57471452653408
scalar Network.dyn_peer[347] 	lookupHopsSig:mean 	14.25
scalar Network.dyn_peer[348] 	lookupTimeSig:mean 	1.64
scalar Network.dyn_peer[348] 	lookupStabilitySig:mean 	0.87331768274307
scalar Network.dyn_peer[348] 	lookupHopsSig:mean 	15.6
scalar Network.dyn_peer[349] 	lookupTimeSig:mean 	1.7625
scalar Network.dyn_peer[349] 	lookupStabilitySig:mean 	0.93505440338049
scalar Network.dyn_peer[349] 	lookupHopsSig:mean 	16.75
scalar Network.dyn_peer[350] 	lookupTimeSig:mean 	1.1857142857143
scalar Network.dyn_peer[350] 	lookupStabilitySig:mean 	0.63848370609672
scalar Network.dyn_peer[350] 	lookupHopsSig:mean 	11
scalar Network.dyn_peer[351] 	lookupTimeSig:mean 	1.3333333333333
scalar Network.dyn_peer[351] 	lookupStabilitySig:mean 	0.84653463494033
scalar Network.dyn_peer[351] 	lookupHopsSig:mean 	12.5
scalar Network.dyn_peer[352] 	lookupTimeSig:mean 	0.96666666666667
scalar Network.dyn_peer[352] 	lookupStabilitySig:mean 	0.63625811381886
scalar Network.dyn_peer[352] 	lookupHopsSig:mean 	8.8333333333333
scalar Network.dyn_peer[353] 	lookupTimeSig:mean 	1.94
scalar Network.dyn_peer[353] 	lookupStabilitySig:mean 	0.75100101977587
scalar Network.dyn_peer[353] 	lookupHopsSig:mean 	18.6
scalar Network.dyn_peer[354] 	lookupTimeSig:mean 	1.58
scalar Network.dyn_peer[354] 	lookupStabilitySig:mean 	0.873999228701
scalar Network.dyn_peer[354] 	lookupHopsSig:mean 	15
scalar Network.dyn_peer[355] 	lookupTimeSig:mean 	1.9
scalar Network.dyn_peer[355] 	lookupStabilitySig:mean 	0.67167132627219
scalar Network.dyn_peer[355] 	lookupHopsSig:mean 	18.25
scalar Network.dyn_peer[356] 	lookupTimeSig:mean 	1.8333333333333
scalar Network.dyn_peer[356] 	lookupStabilitySig:mean 	0.5971949826926
scalar Network.dyn_peer[356] 	lookupHopsSig:mean 	17.666666666667
scalar Network.dyn_peer[357] 	lookupTimeSig:mean 	0.56666666666667
scalar Network.dyn_peer[357] 	lookupStabilitySig:mean 	0.29999997715155
scalar Network.dyn_peer[357] 	lookupHopsSig:mean 	5
scalar Network.dyn_peer[358] 	lookupTimeSig:mean 	1.4
scalar Network.dyn_peer[358] 	lookupStabilitySig:mean 	0.74805952310562
scalar Network.dyn_peer[358] 	lookupHopsSig:mean 	13.2
scalar Network.dyn_peer[359] 	lookupTimeSig:mean 	2.2333333333333
scalar Network.dyn_peer[359] 	lookupStabilitySig:mean 	0.78109122936924
scalar Network.dyn_peer[359] 	lookupHopsSig:mean 	21.666666666667
scalar Network.dyn_peer[360] 	lookupTimeSig:mean 	1.4857142857143
scalar Network.dyn_peer[360] 	lookupStabilitySig:mean 	0.75199306629864
scalar Network.dyn_peer[360] 	lookupHopsSig:mean 	14
scalar Network.dyn_peer[361] 	lookupTimeSig:mean 	1.4285714285714
scalar Network.dyn_peer[361] 	lookupStabilitySig:mean 	0.77890217543713
scalar Network.dyn_peer[361] 	lookupHopsSig:mean 	13.428571428571
scalar Network.dyn_peer[362] 	lookupTimeSig:mean 	1.1625
scalar Network.dyn_peer[362] 	lookupStabilitySig:mean 	0.75945363100618
scalar Network.dyn_peer[362] 	lookupHopsSig:mean 	10.75
scalar Network.dyn_peer[363] 	lookupTimeSig:mean 	1.5444444444444
scalar Network.dyn_peer[363] 	lookupStabilitySig:mean 	0.83488659943557
scalar Network.dyn_peer[363] 	lookupHopsSig:mean 	14.555555555556
scalar Network.dyn_peer[364] 	lookupTimeSig:mean 	1.7
scalar Network.dyn_peer[364] 	lookupStabilitySig:mean 	0.86347303849955
scalar Network.dyn_peer[364] 	lookupHopsSig:mean 	16.166666666667
scalar Network.dyn_peer[365] 	lookupTimeSig:mean 	1.1
scalar Network.dyn_peer[365] 	lookupStabilitySig:mean 	0.68981260965977
scalar Network.dyn_peer[365] 	lookupHopsSig:mean 	10.142857142857
scalar Network.dyn_peer[366] 	lookupTimeSig:mean 	1.02
scalar Network.dyn_peer[366] 	lookupStabilitySig:mean 	0.84317345097661
scalar Network.dyn_peer[366] 	lookupHopsSig:mean 	9.4
scalar Network.dyn_peer[367] 	lookupTimeSig:mean 	1.75
scalar Network.dyn_peer[367] 	lookupStabilitySig:mean 	0.78693541139364
scalar Network.dyn_peer[367] 	lookupHopsSig:mean 	16.75
scalar Network.dyn_peer[368] 	lookupTimeSig:mean 	1.35
scalar Network.dyn_peer[368] 	lookupStabilitySig:mean 	0.73505885689519
scalar Network.dyn_peer[368] 	lookupHopsSig:mean 	12.625
scalar Network.dyn_peer[369] 	lookupTimeSig:mean 	1.5
scalar Network.dyn_peer[369] 	lookupStabilitySig:mean 	0.72696846351027
scalar Network.dyn_peer[369] 	lookupHopsSig:mean 	14.25
scalar Network.dyn_peer[370] 	lookupTimeSig:mean 	1.7666666666667
scalar Network.dyn_peer[370] 	lookupStabilitySig:mean 	0.41174145042896
scalar Network.dyn_peer[370] 	lookupHopsSig:mean 	17
scalar Network.dyn_peer[371] 	lookupTimeSig:mean 	0.98
scalar Network.dyn_peer[371] 	lookupStabilitySig:mean 	0.56888489257544
scalar Network.dyn_peer[371] 	lookupHopsSig:mean 	9
scalar Network.dyn_peer[372] 	lookupTimeSig:mean 	1.85
scalar Network.dyn_peer[372] 	lookupStabilitySig:mean 	0.51837944705039
scalar Network.dyn_peer[372] 	lookupHopsSig:mean 	17.75
scalar Network.dyn_peer[373] 	lookupTimeSig:mean 	2.0666666666667
scalar Network.dyn_peer[373] 	lookupStabilitySig:mean 	0.78720586995284
scalar Network.dyn_peer[373] 	lookupHopsSig:mean 	20
scalar Network.dyn_peer[374] 	lookupTimeSig:mean 	1.0722222222222
scalar Network.dyn_peer[374] 	lookupStabilitySig:mean 	0.84153519736396
scalar Network.dyn_peer[374] 	lookupHopsSig:mean 	9.7777777777778
scalar Network.dyn_peer[375] 	lookupTimeSig:mean 	1.7
scalar Network.dyn_peer[375] 	lookupStabilitySig:mean 	0.88544340990484
scalar Network.dyn_peer[375] 	lookupHopsSig:mean 	16.25
scalar Network.dyn_peer[376] 	lookupTimeSig:mean 	1.15
scalar Network.dyn_peer[376] 	lookupStabilitySig:mean 	0.08333332836628
scalar Network.dyn_peer[376] 	lookupHopsSig:mean 	11
scalar Network.dyn_peer[377] 	lookupTimeSig:mean 	1.54
scalar Network.dyn_peer[377] 	lookupStabilitySig:mean 	0.83906977549195
scalar Network.dyn_peer[377] 	lookupHopsSig:mean 	14.6
scalar Network.dyn_peer[378] 	lookupTimeSig:mean 	1.3666666666667
scalar Network.dyn_peer[378] 	lookupStabilitySig:mean 	0.34894843399525
scalar Network.dyn_peer[378] 	lookupHopsSig:mean 	13
scalar Network.dyn_peer[379] 	lookupTimeSig:mean 	1.65
scalar Network.dyn_peer[379] 	lookupStabilitySig:mean 	0.89145322446711
scalar Network.dyn_peer[379] 	lookupHopsSig:mean 	15.625
scalar Network.dyn_peer[380] 	lookupTimeSig:mean 	1
scalar Network.dyn_peer[380] 	lookupStabilitySig:mean 	0.68472395166755
scalar Network.dyn_peer[380] 	lookupHopsSig:mean 	9.2
scalar Network.dyn_peer[381] 	lookupTimeSig:mean 	2.6
scalar Network.dyn_peer[381] 	lookupStabilitySig:mean 	0.69285712763667
scalar Network.dyn_peer[381] 	lookupHopsSig:mean 	25.5
scalar Network.dyn_peer[382] 	lookupTimeSig:mean 	1
scalar Network.dyn_peer[382] 	lookupStabilitySig:mean 	0.39317208528519
scalar Network.dyn_peer[382] 	lookupHopsSig:mean 	9.3333333333333
scalar Network.dyn_peer[383] 	lookupTimeSig:mean 	2.1333333333333
scalar Network.dyn_peer[383] 	lookupStabilitySig:mean 	0.76315789173047
scalar Network.dyn_peer[383] 	lookupHopsSig:mean 	20.666666666667
scalar Network.dyn_peer[384] 	lookupTimeSig:mean 	2.9
scalar Network.dyn_peer[384] 	lookupStabilitySig:mean 	0.429947078228
scalar Network.dyn_peer[384] 	lookupHopsSig:mean 	28.5
scalar Network.dyn_peer[385] 	lookupTimeSig:mean 	1.3666666666667
scalar Network.dyn_peer[385] 	lookupStabilitySig:mean 	0.45600324124098
scalar Network.dyn_peer[385] 	lookupHopsSig:mean 	13
scalar Network.dyn_peer[386] 	lookupTimeSig:mean 	2.15
scalar Network.dyn_peer[386] 	lookupStabilitySig:mean 	0.22955972701311
scalar Network.dyn_peer[386] 	lookupHopsSig:mean 	21
scalar Network.dyn_peer[387] 	lookupTimeSig:mean 	1.5285714285714
scalar Network.dyn_peer[387] 	lookupStabilitySig:mean 	0.88412982252027
scalar Network.dyn_peer[387] 	lookupHopsSig:mean 	14.428571428571
scalar Network.dyn_peer[388] 	lookupTimeSig:mean 	1.025
scalar Network.dyn_peer[388] 	lookupStabilitySig:mean 	0.49911328032613
scalar Network.dyn_peer[388] 	lookupHopsSig:mean 	9.5
scalar Network.dyn_peer[389] 	lookupTimeSig:mean 	2
scalar Network.dyn_peer[389] 	lookupStabilitySig:mean 	0.54368096217513
scalar Network.dyn_peer[389] 	lookupHopsSig:mean 	19.25
scalar Network.dyn_peer[390] 	lookupTimeSig:mean 	1.1666666666667
scalar Network.dyn_peer[390] 	lookupStabilitySig:mean 	0.57906139393648
scalar Network.dyn_peer[390] 	lookupHopsSig:mean 	11
scalar Network.dyn_peer[391] 	lookupTimeSig:mean 	1.75
scalar Network.dyn_peer[391] 	lookupStabilitySig:mean 	0.93972357956227
scalar Network.dyn_peer[391] 	lookupHopsSig:mean 	16.625
scalar Network.dyn_peer[392] 	lookupTimeSig:mean 	1.4666666666667
scalar Network.dyn_peer[392] 	lookupStabilitySig:mean 	0.92583674440781
scalar Network.dyn_peer[392] 	lookupHopsSig:mean 	13.75
scalar Network.dyn_peer[393] 	lookupTimeSig:mean 	2.225
scalar Network.dyn_peer[393] 	lookupStabilitySig:mean 	0.823854688555
scalar Network.dyn_peer[393] 	lookupHopsSig:mean 	21.5
scalar Network.dyn_peer[394] 	lookupTimeSig:mean 	2.1
scalar Network.dyn_peer[394] 	lookupStabilitySig:mean 	0.9033427067101
scalar Network.dyn_peer[394] 	lookupHopsSig:mean 	20.2
scalar Network.dyn_peer[395] 	lookupTimeSig:mean 	1.2857142857143
scalar Network.dyn_peer[395] 	lookupStabilitySig:mean 	0.78101962192782
scalar Network.dyn_peer[395] 	lookupHopsSig:mean 	12
scalar Network.dyn_peer[396] 	lookupTimeSig:mean 	1.9
scalar Network.dyn_peer[396] 	lookupStabilitySig:mean 	0.90817791533967
scalar Network.dyn_peer[396] 	lookupHopsSig:mean 	18.166666666667
scalar Network.dyn_peer[397] 	lookupTimeSig:mean 	1.7166666666667
scalar Network.dyn_peer[397] 	lookupStabilitySig:mean 	0.82642118694882
scalar Network.dyn_peer[397] 	lookupHopsSig:mean 	16.333333333333
scalar Network.dyn_peer[398] 	lookupTimeSig:mean 	1.4444444444444
scalar Network.dyn_peer[398] 	lookupStabilitySig:mean 	0.90982567446513
scalar Network.dyn_peer[398] 	lookupHopsSig:mean 	13.555555555556
scalar Network.dyn_peer[399] 	lookupTimeSig:mean 	1.5428571428571
scalar Network.dyn_peer[399] 	lookupStabilitySig:mean 	0.9322057227338
scalar Network.dyn_peer[399] 	lookupHopsSig:mean 	14.571428571429
scalar Network.dyn_peer[400] 	lookupTimeSig:mean 	1.575
scalar Network.dyn_peer[400] 	lookupStabilitySig:mean 	0.59336484596133
scalar Network.dyn_peer[400] 	lookupHopsSig:mean 	15
scalar Network.dyn_peer[401] 	lookupTimeSig:mean 	1.46
scalar Network.dyn_peer[401] 	lookupStabilitySig:mean 	0.83693041428924
scalar Network.dyn_peer[401] 	lookupHopsSig:mean 	13.8
scalar Network.dyn_peer[402] 	lookupTimeSig:mean 	1.6125
scalar Network.dyn_peer[402] 	lookupStabilitySig:mean 	0.90147136920132
scalar Network.dyn_peer[402] 	lookupHopsSig:mean 	15.25
scalar Network.dyn_peer[403] 	lookupTimeSig:mean 	1.3166666666667
scalar Network.dyn_peer[403] 	lookupStabilitySig:mean 	0.8749066797706
scalar Network.dyn_peer[403] 	lookupHopsSig:mean 	12.333333333333
scalar Network.dyn_peer[404] 	lookupTimeSig:mean 	1.5333333333333
scalar Network.dyn_peer[404] 	lookupStabilitySig:mean 	0.76593007644018
scalar Network.dyn_peer[404] 	lookupHopsSig:mean 	14.5
scalar Network.dyn_peer[405] 	lookupTimeSig:mean 	2.6666666666667
scalar Network.dyn_peer[405] 	lookupStabilitySig:mean 	0.80481406425436
scalar Network.dyn_peer[405] 	lookupHopsSig:mean 	26
scalar Network.dyn_peer[406] 	lookupTimeSig:mean 	1.25
scalar Network.dyn_peer[406] 	lookupStabilitySig:mean 	0.74797695456073
scalar Network.dyn_peer[406] 	lookupHopsSig:mean 	11.666666666667
scalar Network.dyn_peer[407] 	lookupTimeSig:mean 	1.25
scalar Network.dyn_peer[407] 	lookupStabilitySig:mean 	0.73970120935701
scalar Network.dyn_peer[407] 	lookupHopsSig:mean 	11.625
scalar Network.dyn_peer[408] 	lookupTimeSig:mean 	2.7
scalar Network.dyn_peer[408] 	lookupStabilitySig:mean 	0.72923443838954
scalar Network.dyn_peer[408] 	lookupHopsSig:mean 	26.5
scalar Network.dyn_peer[409] 	lookupTimeSig:mean 	1.4222222222222
scalar Network.dyn_peer[409] 	lookupStabilitySig:mean 	0.90976028040879
scalar Network.dyn_peer[409] 	lookupHopsSig:mean 	13.333333333333
scalar Network.dyn_peer[410] 	lookupTimeSig:mean 	1.7285714285714
scalar Network.dyn_peer[410] 	lookupStabilitySig:mean 	0.91626540198922
scalar Network.dyn_peer[410] 	lookupHopsSig:mean 	16.428571428571
scalar Network.dyn_peer[411] 	lookupTimeSig:mean 	1.2
scalar Network.dyn_peer[411] 	lookupStabilitySig:mean 	0.93105892073363
scalar Network.dyn_peer[411] 	lookupHopsSig:mean 	11.1
scalar Network.dyn_peer[412] 	lookupTimeSig:mean 	1.45
scalar Network.dyn_peer[412] 	lookupStabilitySig:mean 	0.66340887391319
scalar Network.dyn_peer[412] 	lookupHopsSig:mean 	13.666666666667
scalar Network.dyn_peer[413] 	lookupTimeSig:mean 	1.3818181818182
scalar Network.dyn_peer[413] 	lookupStabilitySig:mean 	0.87350241789086
scalar Network.dyn_peer[413] 	lookupHopsSig:mean 	12.909090909091
scalar Network.dyn_peer[414] 	lookupTimeSig:mean 	2
scalar Network.dyn_peer[414] 	lookupStabilitySig:mean 	0.39597504523893
scalar Network.dyn_peer[414] 	lookupHopsSig:mean 	19.333333333333
scalar Network.dyn_peer[415] 	lookupTimeSig:mean 	1.475
scalar Network.dyn_peer[415] 	lookupStabilitySig:mean 	0.47789702378213
scalar Network.dyn_peer[415] 	lookupHopsSig:mean 	14
scalar Network.dyn_peer[416] 	lookupTimeSig:mean 	1.85
scalar Network.dyn_peer[416] 	lookupStabilitySig:mean 	0.48946904856712
scalar Network.dyn_peer[416] 	lookupHopsSig:mean 	17.75
scalar Network.dyn_peer[417] 	lookupTimeSig:mean 	1.6
scalar Network.dyn_peer[417] 	lookupStabilitySig:mean 	0.77341742192705
scalar Network.dyn_peer[417] 	lookupHopsSig:mean 	15.166666666667
scalar Network.dyn_peer[418] 	lookupTimeSig:mean 	2.025
scalar Network.dyn_peer[418] 	lookupStabilitySig:mean 	0.81964088045061
scalar Network.dyn_peer[418] 	lookupHopsSig:mean 	19.5
scalar Network.dyn_peer[419] 	lookupTimeSig:mean 	2.05
scalar Network.dyn_peer[419] 	lookupStabilitySig:mean 	0.88724422268569
scalar Network.dyn_peer[419] 	lookupHopsSig:mean 	19.666666666667
scalar Network.dyn_peer[420] 	lookupTimeSig:mean 	1.25
scalar Network.dyn_peer[420] 	lookupStabilitySig:mean 	0.94517154752329
scalar Network.dyn_peer[420] 	lookupHopsSig:mean 	11.555555555556
scalar Network.dyn_peer[421] 	lookupTimeSig:mean 	2.2
scalar Network.dyn_peer[421] 	lookupStabilitySig:mean 	0.38636365532875
scalar Network.dyn_peer[421] 	lookupHopsSig:mean 	21.5
scalar Network.dyn_peer[422] 	lookupTimeSig:mean 	2.1333333333333
[...]
scalar Network.dyn_peer[883] 	lookupTimeSig:mean 	-nan
scalar Network.dyn_peer[883] 	lookupStabilitySig:mean 	-nan
scalar Network.dyn_peer[883] 	lookupHopsSig:mean 	-nan
scalar Network.dyn_peer[884] 	lookupTimeSig:mean 	-nan
scalar Network.dyn_peer[884] 	lookupStabilitySig:mean 	-nan
scalar Network.dyn_peer[884] 	lookupHopsSig:mean 	-nan
scalar Network.dyn_peer[885] 	lookupTimeSig:mean 	-nan
scalar Network.dyn_peer[885] 	lookupStabilitySig:mean 	-nan
scalar Network.dyn_peer[885] 	lookupHopsSig:mean 	-nan
scalar Network.dyn_peer[886] 	lookupTimeSig:mean 	-nan
scalar Network.dyn_peer[886] 	lookupStabilitySig:mean 	-nan
scalar Network.dyn_peer[886] 	lookupHopsSig:mean 	-nan
scalar Network.dyn_peer[887] 	lookupTimeSig:mean 	-nan
scalar Network.dyn_peer[887] 	lookupStabilitySig:mean 	-nan
scalar Network.dyn_peer[887] 	lookupHopsSig:mean 	-nan
scalar Network.dyn_peer[888] 	lookupTimeSig:mean 	-nan
scalar Network.dyn_peer[888] 	lookupStabilitySig:mean 	-nan
scalar Network.dyn_peer[888] 	lookupHopsSig:mean 	-nan
scalar Network.dyn_peer[889] 	lookupTimeSig:mean 	-nan
scalar Network.dyn_peer[889] 	lookupStabilitySig:mean 	-nan
scalar Network.dyn_peer[889] 	lookupHopsSig:mean 	-nan
scalar Network.dyn_peer[890] 	lookupTimeSig:mean 	-nan
scalar Network.dyn_peer[890] 	lookupStabilitySig:mean 	-nan
scalar Network.dyn_peer[890] 	lookupHopsSig:mean 	-nan
scalar Network.dyn_peer[891] 	lookupTimeSig:mean 	-nan
scalar Network.dyn_peer[891] 	lookupStabilitySig:mean 	-nan
scalar Network.dyn_peer[891] 	lookupHopsSig:mean 	-nan
scalar Network.dyn_peer[892] 	lookupTimeSig:mean 	-nan
scalar Network.dyn_peer[892] 	lookupStabilitySig:mean 	-nan
scalar Network.dyn_peer[892] 	lookupHopsSig:mean 	-nan
scalar Network.dyn_peer[893] 	lookupTimeSig:mean 	-nan
scalar Network.dyn_peer[893] 	lookupStabilitySig:mean 	-nan
scalar Network.dyn_peer[893] 	lookupHopsSig:mean 	-nan
scalar Network.dyn_peer[894] 	lookupTimeSig:mean 	-nan
scalar Network.dyn_peer[894] 	lookupStabilitySig:mean 	-nan
scalar Network.dyn_peer[894] 	lookupHopsSig:mean 	-nan
scalar Network.dyn_peer[895] 	lookupTimeSig:mean 	-nan
scalar Network.dyn_peer[895] 	lookupStabilitySig:mean 	-nan
scalar Network.dyn_peer[895] 	lookupHopsSig:mean 	-nan
scalar Network.dyn_peer[896] 	lookupTimeSig:mean 	-nan
scalar Network.dyn_peer[896] 	lookupStabilitySig:mean 	-nan
scalar Network.dyn_peer[896] 	lookupHopsSig:mean 	-nan
scalar Network.dyn_peer[897] 	lookupTimeSig:mean 	-nan
scalar Network.dyn_peer[897] 	lookupStabilitySig:mean 	-nan
scalar Network.dyn_peer[897] 	lookupHopsSig:mean 	-nan
scalar Network.dyn_peer[898] 	lookupTimeSig:mean 	-nan
scalar Network.dyn_peer[898] 	lookupStabilitySig:mean 	-nan
scalar Network.dyn_peer[898] 	lookupHopsSig:mean 	-nan
scalar Network.dyn_peer[899] 	lookupTimeSig:mean 	-nan
scalar Network.dyn_peer[899] 	lookupStabilitySig:mean 	-nan
scalar Network.dyn_peer[899] 	lookupHopsSig:mean 	-nan
scalar Network.dyn_peer[900] 	lookupTimeSig:mean 	-nan
scalar Network.dyn_peer[900] 	lookupStabilitySig:mean 	-nan
scalar Network.dyn_peer[900] 	lookupHopsSig:mean 	-nan
scalar Network.dyn_peer[901] 	lookupTimeSig:mean 	-nan
scalar Network.dyn_peer[901] 	lookupStabilitySig:mean 	-nan
scalar Network.dyn_peer[901] 	lookupHopsSig:mean 	-nan
scalar Network.dyn_peer[902] 	lookupTimeSig:mean 	-nan
scalar Network.dyn_peer[902] 	lookupStabilitySig:mean 	-nan
scalar Network.dyn_peer[902] 	lookupHopsSig:mean 	-nan
scalar Network.dyn_peer[903] 	lookupTimeSig:mean 	-nan
scalar Network.dyn_peer[903] 	lookupStabilitySig:mean 	-nan
scalar Network.dyn_peer[903] 	lookupHopsSig:mean 	-nan
scalar Network.dyn_peer[904] 	lookupTimeSig:mean 	-nan
scalar Network.dyn_peer[904] 	lookupStabilitySig:mean 	-nan
scalar Network.dyn_peer[904] 	lookupHopsSig:mean 	-nan
scalar Network.dyn_peer[905] 	lookupTimeSig:mean 	-nan
scalar Network.dyn_peer[905] 	lookupStabilitySig:mean 	-nan
scalar Network.dyn_peer[905] 	lookupHopsSig:mean 	-nan
scalar Network.dyn_peer[906] 	lookupTimeSig:mean 	-nan
scalar Network.dyn_peer[906] 	lookupStabilitySig:mean 	-nan
scalar Network.dyn_peer[906] 	lookupHopsSig:mean 	-nan
scalar Network.dyn_peer[907] 	lookupTimeSig:mean 	-nan
scalar Network.dyn_peer[907] 	lookupStabilitySig:mean 	-nan
scalar Network.dyn_peer[907] 	lookupHopsSig:mean 	-nan
scalar Network.dyn_peer[908] 	lookupTimeSig:mean 	-nan
scalar Network.dyn_peer[908] 	lookupStabilitySig:mean 	-nan
scalar Network.dyn_peer[908] 	lookupHopsSig:mean 	-nan
scalar Network.dyn_peer[909] 	lookupTimeSig:mean 	-nan
scalar Network.dyn_peer[909] 	lookupStabilitySig:mean 	-nan
scalar Network.dyn_peer[909] 	lookupHopsSig:mean 	-nan
scalar Network.dyn_peer[910] 	lookupTimeSig:mean 	-nan
scalar Network.dyn_peer[910] 	lookupStabilitySig:mean 	-nan
scalar Network.dyn_peer[910] 	lookupHopsSig:mean 	-nan
scalar Network.dyn_peer[911] 	lookupTimeSig:mean 	-nan
scalar Network.dyn_peer[911] 	lookupStabilitySig:mean 	-nan
scalar Network.dyn_peer[911] 	lookupHopsSig:mean 	-nan
scalar Network.dyn_peer[912] 	lookupTimeSig:mean 	-nan
scalar Network.dyn_peer[912] 	lookupStabilitySig:mean 	-nan
scalar Network.dyn_peer[912] 	lookupHopsSig:mean 	-nan
scalar Network.dyn_peer[913] 	lookupTimeSig:mean 	-nan
scalar Network.dyn_peer[913] 	lookupStabilitySig:mean 	-nan
scalar Network.dyn_peer[913] 	lookupHopsSig:mean 	-nan
scalar Network.dyn_peer[914] 	lookupTimeSig:mean 	-nan
scalar Network.dyn_peer[914] 	lookupStabilitySig:mean 	-nan
scalar Network.dyn_peer[914] 	lookupHopsSig:mean 	-nan
scalar Network.dyn_peer[915] 	lookupTimeSig:mean 	-nan
scalar Network.dyn_peer[915] 	lookupStabilitySig:mean 	-nan
scalar Network.dyn_peer[915] 	lookupHopsSig:mean 	-nan
scalar Network.dyn_peer[916] 	lookupTimeSig:mean 	-nan
scalar Network.dyn_peer[916] 	lookupStabilitySig:mean 	-nan
scalar Network.dyn_peer[916] 	lookupHopsSig:mean 	-nan
scalar Network.dyn_peer[917] 	lookupTimeSig:mean 	-nan
scalar Network.dyn_peer[917] 	lookupStabilitySig:mean 	-nan
scalar Network.dyn_peer[917] 	lookupHopsSig:mean 	-nan
scalar Network.dyn_peer[918] 	lookupTimeSig:mean 	-nan
scalar Network.dyn_peer[918] 	lookupStabilitySig:mean 	-nan
scalar Network.dyn_peer[918] 	lookupHopsSig:mean 	-nan
scalar Network.dyn_peer[919] 	lookupTimeSig:mean 	-nan
scalar Network.dyn_peer[919] 	lookupStabilitySig:mean 	-nan
scalar Network.dyn_peer[919] 	lookupHopsSig:mean 	-nan
scalar Network.dyn_peer[920] 	lookupTimeSig:mean 	-nan
scalar Network.dyn_peer[920] 	lookupStabilitySig:mean 	-nan
scalar Network.dyn_peer[920] 	lookupHopsSig:mean 	-nan
scalar Network.dyn_peer[921] 	lookupTimeSig:mean 	-nan
scalar Network.dyn_peer[921] 	lookupStabilitySig:mean 	-nan
scalar Network.dyn_peer[921] 	lookupHopsSig:mean 	-nan
scalar Network.dyn_peer[922] 	lookupTimeSig:mean 	-nan
scalar Network.dyn_peer[922] 	lookupStabilitySig:mean 	-nan
scalar Network.dyn_peer[922] 	lookupHopsSig:mean 	-nan
scalar Network.dyn_peer[923] 	lookupTimeSig:mean 	-nan
scalar Network.dyn_peer[923] 	lookupStabilitySig:mean 	-nan
scalar Network.dyn_peer[923] 	lookupHopsSig:mean 	-nan
scalar Network.dyn_peer[924] 	lookupTimeSig:mean 	-nan
scalar Network.dyn_peer[924] 	lookupStabilitySig:mean 	-nan
scalar Network.dyn_peer[924] 	lookupHopsSig:mean 	-nan
scalar Network.dyn_peer[925] 	lookupTimeSig:mean 	-nan
scalar Network.dyn_peer[925] 	lookupStabilitySig:mean 	-nan
scalar Network.dyn_peer[925] 	lookupHopsSig:mean 	-nan
scalar Network.dyn_peer[926] 	lookupTimeSig:mean 	-nan
scalar Network.dyn_peer[926] 	lookupStabilitySig:mean 	-nan
scalar Network.dyn_peer[926] 	lookupHopsSig:mean 	-nan
scalar Network.dyn_peer[927] 	lookupTimeSig:mean 	-nan
scalar Network.dyn_peer[927] 	lookupStabilitySig:mean 	-nan
scalar Network.dyn_peer[927] 	lookupHopsSig:mean 	-nan
scalar Network.dyn_peer[928] 	lookupTimeSig:mean 	-nan
scalar Network.dyn_peer[928] 	lookupStabilitySig:mean 	-nan
scalar Network.dyn_peer[928] 	lookupHopsSig:mean 	-nan
scalar Network.dyn_peer[929] 	lookupTimeSig:mean 	-nan
scalar Network.dyn_peer[929] 	lookupStabilitySig:mean 	-nan
scalar Network.dyn_peer[929] 	lookupHopsSig:mean 	-nan
scalar Network.dyn_peer[930] 	lookupTimeSig:mean 	-nan
scalar Network.dyn_peer[930] 	lookupStabilitySig:mean 	-nan
scalar Network.dyn_peer[930] 	lookupHopsSig:mean 	-nan
scalar Network.dyn_peer[931] 	lookupTimeSig:mean 	-nan
scalar Network.dyn_peer[931] 	lookupStabilitySig:mean 	-nan
scalar Network.dyn_peer[931] 	lookupHopsSig:mean 	-nan
scalar Network.dyn_peer[932] 	lookupTimeSig:mean 	-nan
scalar Network.dyn_peer[932] 	lookupStabilitySig:mean 	-nan
scalar Network.dyn_peer[932] 	lookupHopsSig:mean 	-nan
scalar Network.dyn_peer[933] 	lookupTimeSig:mean 	-nan
scalar Network.dyn_peer[933] 	lookupStabilitySig:mean 	-nan
scalar Network.dyn_peer[933] 	lookupHopsSig:mean 	-nan
scalar Network.dyn_peer[934] 	lookupTimeSig:mean 	-nan
scalar Network.dyn_peer[934] 	lookupStabilitySig:mean 	-nan
scalar Network.dyn_peer[934] 	lookupHopsSig:mean 	-nan
scalar Network.dyn_peer[935] 	lookupTimeSig:mean 	-nan
scalar Network.dyn_peer[935] 	lookupStabilitySig:mean 	-nan
scalar Network.dyn_peer[935] 	lookupHopsSig:mean 	-nan
scalar Network.dyn_peer[936] 	lookupTimeSig:mean 	-nan
scalar Network.dyn_peer[936] 	lookupStabilitySig:mean 	-nan
scalar Network.dyn_peer[936] 	lookupHopsSig:mean 	-nan
scalar Network.dyn_peer[937] 	lookupTimeSig:mean 	-nan
scalar Network.dyn_peer[937] 	lookupStabilitySig:mean 	-nan
scalar Network.dyn_peer[937] 	lookupHopsSig:mean 	-nan
scalar Network.dyn_peer[938] 	lookupTimeSig:mean 	-nan
scalar Network.dyn_peer[938] 	lookupStabilitySig:mean 	-nan
scalar Network.dyn_peer[938] 	lookupHopsSig:mean 	-nan
scalar Network.dyn_peer[939] 	lookupTimeSig:mean 	-nan
scalar Network.dyn_peer[939] 	lookupStabilitySig:mean 	-nan
scalar Network.dyn_peer[939] 	lookupHopsSig:mean 	-nan
scalar Network.dyn_peer[940] 	lookupTimeSig:mean 	-nan
scalar Network.dyn_peer[940] 	lookupStabilitySig:mean 	-nan
scalar Network.dyn_peer[940] 	lookupHopsSig:mean 	-nan
scalar Network.dyn_peer[941] 	lookupTimeSig:mean 	-nan
scalar Network.dyn_peer[941] 	lookupStabilitySig:mean 	-nan
scalar Network.dyn_peer[941] 	lookupHopsSig:mean 	-nan
scalar Network.dyn_peer[942] 	lookupTimeSig:mean 	-nan
scalar Network.dyn_peer[942] 	lookupStabilitySig:mean 	-nan
scalar Network.dyn_peer[942] 	lookupHopsSig:mean 	-nan
scalar Network.dyn_peer[943] 	lookupTimeSig:mean 	-nan
scalar Network.dyn_peer[943] 	lookupStabilitySig:mean 	-nan
scalar Network.dyn_peer[943] 	lookupHopsSig:mean 	-nan
scalar Network.dyn_peer[944] 	lookupTimeSig:mean 	-nan
scalar Network.dyn_peer[944] 	lookupStabilitySig:mean 	-nan
scalar Network.dyn_peer[944] 	lookupHopsSig:mean 	-nan
scalar Network.dyn_peer[945] 	lookupTimeSig:mean 	-nan
scalar Network.dyn_peer[945] 	lookupStabilitySig:mean 	-nan
scalar Network.dyn_peer[945] 	lookupHopsSig:mean 	-nan
scalar Network.dyn_peer[946] 	lookupTimeSig:mean 	-nan
scalar Network.dyn_peer[946] 	lookupStabilitySig:mean 	-nan
scalar Network.dyn_peer[946] 	lookupHopsSig:mean 	-nan
scalar Network.dyn_peer[947] 	lookupTimeSig:mean 	-nan
scalar Network.dyn_peer[947] 	lookupStabilitySig:mean 	-nan
scalar Network.dyn_peer[947] 	lookupHopsSig:mean 	-nan
scalar Network.dyn_peer[948] 	lookupTimeSig:mean 	-nan
scalar Network.dyn_peer[948] 	lookupStabilitySig:mean 	-nan
scalar Network.dyn_peer[948] 	lookupHopsSig:mean 	-nan
scalar Network.dyn_peer[949] 	lookupTimeSig:mean 	-nan
scalar Network.dyn_peer[949] 	lookupStabilitySig:mean 	-nan
scalar Network.dyn_peer[949] 	lookupHopsSig:mean 	-nan
scalar Network.dyn_peer[950] 	lookupTimeSig:mean 	-nan
scalar Network.dyn_peer[950] 	lookupStabilitySig:mean 	-nan
scalar Network.dyn_peer[950] 	lookupHopsSig:mean 	-nan
scalar Network.dyn_peer[951] 	lookupTimeSig:mean 	-nan
scalar Network.dyn_peer[951] 	lookupStabilitySig:mean 	-nan
scalar Network.dyn_peer[951] 	lookupHopsSig:mean 	-nan
scalar Network.dyn_peer[952] 	lookupTimeSig:mean 	-nan
scalar Network.dyn_peer[952] 	lookupStabilitySig:mean 	-nan
scalar Network.dyn_peer[952] 	lookupHopsSig:mean 	-nan
scalar Network.dyn_peer[953] 	lookupTimeSig:mean 	-nan
scalar Network.dyn_peer[953] 	lookupStabilitySig:mean 	-nan
scalar Network.dyn_peer[953] 	lookupHopsSig:mean 	-nan
scalar Network.dyn_peer[954] 	lookupTimeSig:mean 	-nan
scalar Network.dyn_peer[954] 	lookupStabilitySig:mean 	-nan
scalar Network.dyn_peer[954] 	lookupHopsSig:mean 	-nan
scalar Network.dyn_peer[955] 	lookupTimeSig:mean 	-nan
scalar Network.dyn_peer[955] 	lookupStabilitySig:mean 	-nan
scalar Network.dyn_peer[955] 	lookupHopsSig:mean 	-nan
scalar Network.dyn_peer[956] 	lookupTimeSig:mean 	-nan
scalar Network.dyn_peer[956] 	lookupStabilitySig:mean 	-nan
scalar Network.dyn_peer[956] 	lookupHopsSig:mean 	-nan
scalar Network.dyn_peer[957] 	lookupTimeSig:mean 	-nan
scalar Network.dyn_peer[957] 	lookupStabilitySig:mean 	-nan
scalar Network.dyn_peer[957] 	lookupHopsSig:mean 	-nan
scalar Network.dyn_peer[958] 	lookupTimeSig:mean 	-nan
scalar Network.dyn_peer[958] 	lookupStabilitySig:mean 	-nan
scalar Network.dyn_peer[958] 	lookupHopsSig:mean 	-nan
scalar Network.dyn_peer[959] 	lookupTimeSig:mean 	-nan
scalar Network.dyn_peer[959] 	lookupStabilitySig:mean 	-nan
scalar Network.dyn_peer[959] 	lookupHopsSig:mean 	-nan
scalar Network.dyn_peer[960] 	lookupTimeSig:mean 	-nan
scalar Network.dyn_peer[960] 	lookupStabilitySig:mean 	-nan
scalar Network.dyn_peer[960] 	lookupHopsSig:mean 	-nan
scalar Network.dyn_peer[961] 	lookupTimeSig:mean 	-nan
scalar Network.dyn_peer[961] 	lookupStabilitySig:mean 	-nan
scalar Network.dyn_peer[961] 	lookupHopsSig:mean 	-nan
scalar Network.dyn_peer[962] 	lookupTimeSig:mean 	-nan
scalar Network.dyn_peer[962] 	lookupStabilitySig:mean 	-nan
scalar Network.dyn_peer[962] 	lookupHopsSig:mean 	-nan
scalar Network.dyn_peer[963] 	lookupTimeSig:mean 	-nan
scalar Network.dyn_peer[963] 	lookupStabilitySig:mean 	-nan
scalar Network.dyn_peer[963] 	lookupHopsSig:mean 	-nan
scalar Network.dyn_peer[964] 	lookupTimeSig:mean 	-nan
scalar Network.dyn_peer[964] 	lookupStabilitySig:mean 	-nan
scalar Network.dyn_peer[964] 	lookupHopsSig:mean 	-nan
scalar Network.dyn_peer[965] 	lookupTimeSig:mean 	-nan
scalar Network.dyn_peer[965] 	lookupStabilitySig:mean 	-nan
scalar Network.dyn_peer[965] 	lookupHopsSig:mean 	-nan
scalar Network.dyn_peer[966] 	lookupTimeSig:mean 	-nan
scalar Network.dyn_peer[966] 	lookupStabilitySig:mean 	-nan
scalar Network.dyn_peer[966] 	lookupHopsSig:mean 	-nan
scalar Network.dyn_peer[967] 	lookupTimeSig:mean 	-nan
scalar Network.dyn_peer[967] 	lookupStabilitySig:mean 	-nan
scalar Network.dyn_peer[967] 	lookupHopsSig:mean 	-nan
scalar Network.dyn_peer[968] 	lookupTimeSig:mean 	-nan
scalar Network.dyn_peer[968] 	lookupStabilitySig:mean 	-nan
scalar Network.dyn_peer[968] 	lookupHopsSig:mean 	-nan
scalar Network.dyn_peer[969] 	lookupTimeSig:mean 	-nan
scalar Network.dyn_peer[969] 	lookupStabilitySig:mean 	-nan
scalar Network.dyn_peer[969] 	lookupHopsSig:mean 	-nan
scalar Network.dyn_peer[970] 	lookupTimeSig:mean 	-nan
scalar Network.dyn_peer[970] 	lookupStabilitySig:mean 	-nan
scalar Network.dyn_peer[970] 	lookupHopsSig:mean 	-nan
scalar Network.dyn_peer[971] 	lookupTimeSig:mean 	-nan
scalar Network.dyn_peer[971] 	lookupStabilitySig:mean 	-nan
scalar Network.dyn_peer[971] 	lookupHopsSig:mean 	-nan
scalar Network.dyn_peer[972] 	lookupTimeSig:mean 	-nan
scalar Network.dyn_peer[972] 	lookupStabilitySig:mean 	-nan
scalar Network.dyn_peer[972] 	lookupHopsSig:mean 	-nan
scalar Network.dyn_peer[973] 	lookupTimeSig:mean 	-nan
scalar Network.dyn_peer[973] 	lookupStabilitySig:mean 	-nan
scalar Network.dyn_peer[973] 	lookupHopsSig:mean 	-nan
scalar Network.dyn_peer[974] 	lookupTimeSig:mean 	-nan
scalar Network.dyn_peer[974] 	lookupStabilitySig:mean 	-nan
scalar Network.dyn_peer[974] 	lookupHopsSig:mean 	-nan
scalar Network.dyn_peer[975] 	lookupTimeSig:mean 	-nan
scalar Network.dyn_peer[975] 	lookupStabilitySig:mean 	-nan
scalar Network.dyn_peer[975] 	lookupHopsSig:mean 	-nan
scalar Network.dyn_peer[976] 	lookupTimeSig:mean 	-nan
scalar Network.dyn_peer[976] 	lookupStabilitySig:mean 	-nan
scalar Network.dyn_peer[976] 	lookupHopsSig:mean 	-nan
scalar Network.dyn_peer[977] 	lookupTimeSig:mean 	-nan
scalar Network.dyn_peer[977] 	lookupStabilitySig:mean 	-nan
scalar Network.dyn_peer[977] 	lookupHopsSig:mean 	-nan
scalar Network.dyn_peer[978] 	lookupTimeSig:mean 	-nan
scalar Network.dyn_peer[978] 	lookupStabilitySig:mean 	-nan
scalar Network.dyn_peer[978] 	lookupHopsSig:mean 	-nan
scalar Network.dyn_peer[979] 	lookupTimeSig:mean 	-nan
scalar Network.dyn_peer[979] 	lookupStabilitySig:mean 	-nan
scalar Network.dyn_peer[979] 	lookupHopsSig:mean 	-nan
scalar Network.dyn_peer[980] 	lookupTimeSig:mean 	-nan
scalar Network.dyn_peer[980] 	lookupStabilitySig:mean 	-nan
scalar Network.dyn_peer[980] 	lookupHopsSig:mean 	-nan
scalar Network.dyn_peer[981] 	lookupTimeSig:mean 	-nan
scalar Network.dyn_peer[981] 	lookupStabilitySig:mean 	-nan
scalar Network.dyn_peer[981] 	lookupHopsSig:mean 	-nan
scalar Network.dyn_peer[982] 	lookupTimeSig:mean 	-nan
scalar Network.dyn_peer[982] 	lookupStabilitySig:mean 	-nan
scalar Network.dyn_peer[982] 	lookupHopsSig:mean 	-nan
scalar Network.dyn_peer[983] 	lookupTimeSig:mean 	-nan
scalar Network.dyn_peer[983] 	lookupStabilitySig:mean 	-nan
scalar Network.dyn_peer[983] 	lookupHopsSig:mean 	-nan
scalar Network.dyn_peer[984] 	lookupTimeSig:mean 	-nan
scalar Network.dyn_peer[984] 	lookupStabilitySig:mean 	-nan
scalar Network.dyn_peer[984] 	lookupHopsSig:mean 	-nan
scalar Network.dyn_peer[985] 	lookupTimeSig:mean 	-nan
scalar Network.dyn_peer[985] 	lookupStabilitySig:mean 	-nan
scalar Network.dyn_peer[985] 	lookupHopsSig:mean 	-nan
scalar Network.dyn_peer[986] 	lookupTimeSig:mean 	-nan
scalar Network.dyn_peer[986] 	lookupStabilitySig:mean 	-nan
scalar Network.dyn_peer[986] 	lookupHopsSig:mean 	-nan
scalar Network.dyn_peer[987] 	lookupTimeSig:mean 	-nan
scalar Network.dyn_peer[987] 	lookupStabilitySig:mean 	-nan
scalar Network.dyn_peer[987] 	lookupHopsSig:mean 	-nan
scalar Network.dyn_peer[988] 	lookupTimeSig:mean 	-nan
scalar Network.dyn_peer[988] 	lookupStabilitySig:mean 	-nan
scalar Network.dyn_peer[988] 	lookupHopsSig:mean 	-nan
scalar Network.dyn_peer[989] 	lookupTimeSig:mean 	-nan
scalar Network.dyn_peer[989] 	lookupStabilitySig:mean 	-nan
scalar Network.dyn_peer[989] 	lookupHopsSig:mean 	-nan
scalar Network.dyn_peer[990] 	lookupTimeSig:mean 	-nan
scalar Network.dyn_peer[990] 	lookupStabilitySig:mean 	-nan
scalar Network.dyn_peer[990] 	lookupHopsSig:mean 	-nan
scalar Network.dyn_peer[991] 	lookupTimeSig:mean 	-nan
scalar Network.dyn_peer[991] 	lookupStabilitySig:mean 	-nan
scalar Network.dyn_peer[991] 	lookupHopsSig:mean 	-nan
scalar Network.dyn_peer[992] 	lookupTimeSig:mean 	-nan
scalar Network.dyn_peer[992] 	lookupStabilitySig:mean 	-nan
scalar Network.dyn_peer[992] 	lookupHopsSig:mean 	-nan
scalar Network.dyn_peer[993] 	lookupTimeSig:mean 	-nan
scalar Network.dyn_peer[993] 	lookupStabilitySig:mean 	-nan
scalar Network.dyn_peer[993] 	lookupHopsSig:mean 	-nan
scalar Network.dyn_peer[994] 	lookupTimeSig:mean 	-nan
scalar Network.dyn_peer[994] 	lookupStabilitySig:mean 	-nan
scalar Network.dyn_peer[994] 	lookupHopsSig:mean 	-nan
scalar Network.dyn_peer[995] 	lookupTimeSig:mean 	-nan
scalar Network.dyn_peer[995] 	lookupStabilitySig:mean 	-nan
scalar Network.dyn_peer[995] 	lookupHopsSig:mean 	-nan
scalar Network.dyn_peer[996] 	lookupTimeSig:mean 	-nan
scalar Network.dyn_peer[996] 	lookupStabilitySig:mean 	-nan
scalar Network.dyn_peer[996] 	lookupHopsSig:mean 	-nan
scalar Network.dyn_peer[997] 	lookupTimeSig:mean 	-nan
scalar Network.dyn_peer[997] 	lookupStabilitySig:mean 	-nan
scalar Network.dyn_peer[997] 	lookupHopsSig:mean 	-nan
scalar Network.dyn_peer[998] 	lookupTimeSig:mean 	-nan
scalar Network.dyn_peer[998] 	lookupStabilitySig:mean 	-nan
scalar Network.dyn_peer[998] 	lookupHopsSig:mean 	-nan
scalar Network.dyn_peer[999] 	lookupTimeSig:mean 	-nan
scalar Network.dyn_peer[999] 	lookupStabilitySig:mean 	-nan
scalar Network.dyn_peer[999] 	lookupHopsSig:mean 	-nan
scalar Network.churner 	inGoingSizeSig:mean 	249.00199600798
