version 2
run Stability2-317-20130526-00:55:08-26640
attr configname Stability2
attr datetime 20130526-00:55:08
attr experiment Stability2
attr inifile omnetpp.ini
attr iterationvars $0=1000
attr iterationvars2 "$0=1000, $repetition=17"
attr measurement $0=1000
attr network Network
attr processid 26640
attr repetition 17
attr replication #17
attr resultdir results
attr runnumber 317
attr seedset 317

scalar Network.dyn_peer[0] 	lookupTimeSig:mean 	1.925
scalar Network.dyn_peer[0] 	lookupStabilitySig:mean 	0.87835209618788
scalar Network.dyn_peer[0] 	lookupHopsSig:mean 	18.375
scalar Network.dyn_peer[1] 	lookupTimeSig:mean 	1.8571428571429
scalar Network.dyn_peer[1] 	lookupStabilitySig:mean 	0.64957464459751
scalar Network.dyn_peer[1] 	lookupHopsSig:mean 	17.714285714286
scalar Network.dyn_peer[2] 	lookupTimeSig:mean 	1.5
scalar Network.dyn_peer[2] 	lookupStabilitySig:mean 	0.30303032323718
scalar Network.dyn_peer[2] 	lookupHopsSig:mean 	14.25
scalar Network.dyn_peer[3] 	lookupTimeSig:mean 	2.3888888888889
scalar Network.dyn_peer[3] 	lookupStabilitySig:mean 	0.87053232376153
scalar Network.dyn_peer[3] 	lookupHopsSig:mean 	23
scalar Network.dyn_peer[4] 	lookupTimeSig:mean 	1.9857142857143
scalar Network.dyn_peer[4] 	lookupStabilitySig:mean 	0.58850433943527
scalar Network.dyn_peer[4] 	lookupHopsSig:mean 	19
scalar Network.dyn_peer[5] 	lookupTimeSig:mean 	1.6333333333333
scalar Network.dyn_peer[5] 	lookupStabilitySig:mean 	0.14421766996384
scalar Network.dyn_peer[5] 	lookupHopsSig:mean 	15.666666666667
scalar Network.dyn_peer[6] 	lookupTimeSig:mean 	2.25
scalar Network.dyn_peer[6] 	lookupStabilitySig:mean 	0.70466949325055
scalar Network.dyn_peer[6] 	lookupHopsSig:mean 	21.75
scalar Network.dyn_peer[7] 	lookupTimeSig:mean 	1.5125
scalar Network.dyn_peer[7] 	lookupStabilitySig:mean 	0.59737603703979
scalar Network.dyn_peer[7] 	lookupHopsSig:mean 	14.25
scalar Network.dyn_peer[8] 	lookupTimeSig:mean 	5.9
scalar Network.dyn_peer[8] 	lookupStabilitySig:mean 	0.7145060300827
scalar Network.dyn_peer[8] 	lookupHopsSig:mean 	58.333333333333
scalar Network.dyn_peer[9] 	lookupTimeSig:mean 	2.1
scalar Network.dyn_peer[9] 	lookupStabilitySig:mean 	0.65407715241114
scalar Network.dyn_peer[9] 	lookupHopsSig:mean 	20.333333333333
scalar Network.dyn_peer[10] 	lookupTimeSig:mean 	1.6125
scalar Network.dyn_peer[10] 	lookupStabilitySig:mean 	0.70593961537816
scalar Network.dyn_peer[10] 	lookupHopsSig:mean 	15.25
scalar Network.dyn_peer[11] 	lookupTimeSig:mean 	1.825
scalar Network.dyn_peer[11] 	lookupStabilitySig:mean 	0.54434522520751
scalar Network.dyn_peer[11] 	lookupHopsSig:mean 	17.5
scalar Network.dyn_peer[12] 	lookupTimeSig:mean 	2.7
scalar Network.dyn_peer[12] 	lookupStabilitySig:mean 	0.71079811453819
scalar Network.dyn_peer[12] 	lookupHopsSig:mean 	26.333333333333
scalar Network.dyn_peer[13] 	lookupTimeSig:mean 	2.66
scalar Network.dyn_peer[13] 	lookupStabilitySig:mean 	0.56451017260551
scalar Network.dyn_peer[13] 	lookupHopsSig:mean 	25.8
scalar Network.dyn_peer[14] 	lookupTimeSig:mean 	1.65
scalar Network.dyn_peer[14] 	lookupStabilitySig:mean 	0.61881748090188
scalar Network.dyn_peer[14] 	lookupHopsSig:mean 	15.666666666667
scalar Network.dyn_peer[15] 	lookupTimeSig:mean 	1.5
scalar Network.dyn_peer[15] 	lookupStabilitySig:mean 	0.49813716635108
scalar Network.dyn_peer[15] 	lookupHopsSig:mean 	14.2
scalar Network.dyn_peer[16] 	lookupTimeSig:mean 	1.4769230769231
scalar Network.dyn_peer[16] 	lookupStabilitySig:mean 	0.85062363836914
scalar Network.dyn_peer[16] 	lookupHopsSig:mean 	13.846153846154
scalar Network.dyn_peer[17] 	lookupTimeSig:mean 	2.96
scalar Network.dyn_peer[17] 	lookupStabilitySig:mean 	0.67516273483634
scalar Network.dyn_peer[17] 	lookupHopsSig:mean 	28.8
scalar Network.dyn_peer[18] 	lookupTimeSig:mean 	1.8333333333333
scalar Network.dyn_peer[18] 	lookupStabilitySig:mean 	0.53247819871952
scalar Network.dyn_peer[18] 	lookupHopsSig:mean 	17.5
scalar Network.dyn_peer[19] 	lookupTimeSig:mean 	1.6466666666667
scalar Network.dyn_peer[19] 	lookupStabilitySig:mean 	0.83010267366966
scalar Network.dyn_peer[19] 	lookupHopsSig:mean 	15.533333333333
scalar Network.dyn_peer[20] 	lookupTimeSig:mean 	2.1166666666667
scalar Network.dyn_peer[20] 	lookupStabilitySig:mean 	0.39853302575648
scalar Network.dyn_peer[20] 	lookupHopsSig:mean 	20.333333333333
scalar Network.dyn_peer[21] 	lookupTimeSig:mean 	1.92
scalar Network.dyn_peer[21] 	lookupStabilitySig:mean 	0.61124966852367
scalar Network.dyn_peer[21] 	lookupHopsSig:mean 	18.4
scalar Network.dyn_peer[22] 	lookupTimeSig:mean 	0.925
scalar Network.dyn_peer[22] 	lookupStabilitySig:mean 	0.17440477386117
scalar Network.dyn_peer[22] 	lookupHopsSig:mean 	8.5
scalar Network.dyn_peer[23] 	lookupTimeSig:mean 	2.2625
scalar Network.dyn_peer[23] 	lookupStabilitySig:mean 	0.69171059178188
scalar Network.dyn_peer[23] 	lookupHopsSig:mean 	21.75
scalar Network.dyn_peer[24] 	lookupTimeSig:mean 	2.85
scalar Network.dyn_peer[24] 	lookupStabilitySig:mean 	0.49644639715552
scalar Network.dyn_peer[24] 	lookupHopsSig:mean 	27.75
scalar Network.dyn_peer[25] 	lookupTimeSig:mean 	1.625
scalar Network.dyn_peer[25] 	lookupStabilitySig:mean 	0.71340851206332
scalar Network.dyn_peer[25] 	lookupHopsSig:mean 	15.5
scalar Network.dyn_peer[26] 	lookupTimeSig:mean 	1.15
scalar Network.dyn_peer[26] 	lookupStabilitySig:mean 	0.50963099300861
scalar Network.dyn_peer[26] 	lookupHopsSig:mean 	10.75
scalar Network.dyn_peer[27] 	lookupTimeSig:mean 	2.0428571428571
scalar Network.dyn_peer[27] 	lookupStabilitySig:mean 	0.79604729903596
scalar Network.dyn_peer[27] 	lookupHopsSig:mean 	19.571428571429
scalar Network.dyn_peer[28] 	lookupTimeSig:mean 	1.4
scalar Network.dyn_peer[28] 	lookupStabilitySig:mean 	-0.4227941185236
scalar Network.dyn_peer[28] 	lookupHopsSig:mean 	13.5
scalar Network.dyn_peer[29] 	lookupTimeSig:mean 	3
scalar Network.dyn_peer[29] 	lookupStabilitySig:mean 	0.30170170962811
scalar Network.dyn_peer[29] 	lookupHopsSig:mean 	29.333333333333
scalar Network.dyn_peer[30] 	lookupTimeSig:mean 	1.9857142857143
scalar Network.dyn_peer[30] 	lookupStabilitySig:mean 	0.81402550664331
scalar Network.dyn_peer[30] 	lookupHopsSig:mean 	19
scalar Network.dyn_peer[31] 	lookupTimeSig:mean 	2.3
scalar Network.dyn_peer[31] 	lookupStabilitySig:mean 	-0.36965811252594
scalar Network.dyn_peer[31] 	lookupHopsSig:mean 	22.5
scalar Network.dyn_peer[32] 	lookupTimeSig:mean 	1.8666666666667
scalar Network.dyn_peer[32] 	lookupStabilitySig:mean 	0.084948758284251
scalar Network.dyn_peer[32] 	lookupHopsSig:mean 	18
scalar Network.dyn_peer[33] 	lookupTimeSig:mean 	1.8777777777778
scalar Network.dyn_peer[33] 	lookupStabilitySig:mean 	0.60885585647904
scalar Network.dyn_peer[33] 	lookupHopsSig:mean 	17.888888888889
scalar Network.dyn_peer[34] 	lookupTimeSig:mean 	1.125
scalar Network.dyn_peer[34] 	lookupStabilitySig:mean 	0.31573033332825
scalar Network.dyn_peer[34] 	lookupHopsSig:mean 	10.5
scalar Network.dyn_peer[35] 	lookupTimeSig:mean 	1.7
scalar Network.dyn_peer[35] 	lookupStabilitySig:mean 	-0.65909087657928
scalar Network.dyn_peer[35] 	lookupHopsSig:mean 	16.5
scalar Network.dyn_peer[36] 	lookupTimeSig:mean 	1.475
scalar Network.dyn_peer[36] 	lookupStabilitySig:mean 	0.21976697072387
scalar Network.dyn_peer[36] 	lookupHopsSig:mean 	14
scalar Network.dyn_peer[37] 	lookupTimeSig:mean 	1.73
scalar Network.dyn_peer[37] 	lookupStabilitySig:mean 	0.77563817175105
scalar Network.dyn_peer[37] 	lookupHopsSig:mean 	16.4
scalar Network.dyn_peer[38] 	lookupTimeSig:mean 	2.54
scalar Network.dyn_peer[38] 	lookupStabilitySig:mean 	0.60008987504989
scalar Network.dyn_peer[38] 	lookupHopsSig:mean 	24.6
scalar Network.dyn_peer[39] 	lookupTimeSig:mean 	1.2666666666667
scalar Network.dyn_peer[39] 	lookupStabilitySig:mean 	-0.086288432280223
scalar Network.dyn_peer[39] 	lookupHopsSig:mean 	12
scalar Network.dyn_peer[40] 	lookupTimeSig:mean 	1.625
scalar Network.dyn_peer[40] 	lookupStabilitySig:mean 	0.17241530492902
scalar Network.dyn_peer[40] 	lookupHopsSig:mean 	15.5
scalar Network.dyn_peer[41] 	lookupTimeSig:mean 	2.1571428571429
scalar Network.dyn_peer[41] 	lookupStabilitySig:mean 	0.58274679604386
scalar Network.dyn_peer[41] 	lookupHopsSig:mean 	20.714285714286
scalar Network.dyn_peer[42] 	lookupTimeSig:mean 	2.9
scalar Network.dyn_peer[42] 	lookupStabilitySig:mean 	0.91610220462705
scalar Network.dyn_peer[42] 	lookupHopsSig:mean 	28.166666666667
scalar Network.dyn_peer[43] 	lookupTimeSig:mean 	1.35
scalar Network.dyn_peer[43] 	lookupStabilitySig:mean 	0.55346819612896
scalar Network.dyn_peer[43] 	lookupHopsSig:mean 	12.625
scalar Network.dyn_peer[44] 	lookupTimeSig:mean 	1.4
scalar Network.dyn_peer[44] 	lookupStabilitySig:mean 	0.57426152005792
scalar Network.dyn_peer[44] 	lookupHopsSig:mean 	13.125
scalar Network.dyn_peer[45] 	lookupTimeSig:mean 	2.2333333333333
scalar Network.dyn_peer[45] 	lookupStabilitySig:mean 	0.48095741743843
scalar Network.dyn_peer[45] 	lookupHopsSig:mean 	21.666666666667
scalar Network.dyn_peer[46] 	lookupTimeSig:mean 	1.175
scalar Network.dyn_peer[46] 	lookupStabilitySig:mean 	0.3517857119441
scalar Network.dyn_peer[46] 	lookupHopsSig:mean 	11
scalar Network.dyn_peer[47] 	lookupTimeSig:mean 	4.325
scalar Network.dyn_peer[47] 	lookupStabilitySig:mean 	0.8927859030664
scalar Network.dyn_peer[47] 	lookupHopsSig:mean 	42.5
scalar Network.dyn_peer[48] 	lookupTimeSig:mean 	1.5
scalar Network.dyn_peer[48] 	lookupStabilitySig:mean 	0.29041701182723
scalar Network.dyn_peer[48] 	lookupHopsSig:mean 	14.25
scalar Network.dyn_peer[49] 	lookupTimeSig:mean 	2.0571428571429
scalar Network.dyn_peer[49] 	lookupStabilitySig:mean 	0.55800312877234
scalar Network.dyn_peer[49] 	lookupHopsSig:mean 	19.714285714286
scalar Network.dyn_peer[50] 	lookupTimeSig:mean 	4.325
scalar Network.dyn_peer[50] 	lookupStabilitySig:mean 	0.69236200116575
scalar Network.dyn_peer[50] 	lookupHopsSig:mean 	42.5
scalar Network.dyn_peer[51] 	lookupTimeSig:mean 	1.4625
scalar Network.dyn_peer[51] 	lookupStabilitySig:mean 	0.81466015559272
scalar Network.dyn_peer[51] 	lookupHopsSig:mean 	13.75
scalar Network.dyn_peer[52] 	lookupTimeSig:mean 	6.2
scalar Network.dyn_peer[52] 	lookupStabilitySig:mean 	-0.38311686366796
scalar Network.dyn_peer[52] 	lookupHopsSig:mean 	61.5
scalar Network.dyn_peer[53] 	lookupTimeSig:mean 	1.82
scalar Network.dyn_peer[53] 	lookupStabilitySig:mean 	0.48423318043351
scalar Network.dyn_peer[53] 	lookupHopsSig:mean 	17.4
scalar Network.dyn_peer[54] 	lookupTimeSig:mean 	2.5285714285714
scalar Network.dyn_peer[54] 	lookupStabilitySig:mean 	0.58774872829339
scalar Network.dyn_peer[54] 	lookupHopsSig:mean 	24.428571428571
scalar Network.dyn_peer[55] 	lookupTimeSig:mean 	1.4333333333333
scalar Network.dyn_peer[55] 	lookupStabilitySig:mean 	0.718377705353
scalar Network.dyn_peer[55] 	lookupHopsSig:mean 	13.5
scalar Network.dyn_peer[56] 	lookupTimeSig:mean 	2.8
scalar Network.dyn_peer[56] 	lookupStabilitySig:mean 	0.74757446969549
scalar Network.dyn_peer[56] 	lookupHopsSig:mean 	27.166666666667
scalar Network.dyn_peer[57] 	lookupTimeSig:mean 	1.44
scalar Network.dyn_peer[57] 	lookupStabilitySig:mean 	0.43126738332212
scalar Network.dyn_peer[57] 	lookupHopsSig:mean 	13.6
scalar Network.dyn_peer[58] 	lookupTimeSig:mean 	1.18
scalar Network.dyn_peer[58] 	lookupStabilitySig:mean 	0.37773251608014
scalar Network.dyn_peer[58] 	lookupHopsSig:mean 	11
scalar Network.dyn_peer[59] 	lookupTimeSig:mean 	3.6
scalar Network.dyn_peer[59] 	lookupStabilitySig:mean 	0.36075949668884
scalar Network.dyn_peer[59] 	lookupHopsSig:mean 	35.5
scalar Network.dyn_peer[60] 	lookupTimeSig:mean 	2.15
scalar Network.dyn_peer[60] 	lookupStabilitySig:mean 	0.3691359963268
scalar Network.dyn_peer[60] 	lookupHopsSig:mean 	20.75
scalar Network.dyn_peer[61] 	lookupTimeSig:mean 	1.15
scalar Network.dyn_peer[61] 	lookupStabilitySig:mean 	0.13943639025092
scalar Network.dyn_peer[61] 	lookupHopsSig:mean 	10.75
scalar Network.dyn_peer[62] 	lookupTimeSig:mean 	1.72
scalar Network.dyn_peer[62] 	lookupStabilitySig:mean 	0.36465744227171
scalar Network.dyn_peer[62] 	lookupHopsSig:mean 	16.4
scalar Network.dyn_peer[63] 	lookupTimeSig:mean 	2.1111111111111
scalar Network.dyn_peer[63] 	lookupStabilitySig:mean 	0.81588314080404
scalar Network.dyn_peer[63] 	lookupHopsSig:mean 	20.222222222222
scalar Network.dyn_peer[64] 	lookupTimeSig:mean 	1.8833333333333
scalar Network.dyn_peer[64] 	lookupStabilitySig:mean 	0.48064172050605
scalar Network.dyn_peer[64] 	lookupHopsSig:mean 	18
scalar Network.dyn_peer[65] 	lookupTimeSig:mean 	5.125
scalar Network.dyn_peer[65] 	lookupStabilitySig:mean 	0.65721278823912
scalar Network.dyn_peer[65] 	lookupHopsSig:mean 	50.5
scalar Network.dyn_peer[66] 	lookupTimeSig:mean 	1.7
scalar Network.dyn_peer[66] 	lookupStabilitySig:mean 	0.65394516118492
scalar Network.dyn_peer[66] 	lookupHopsSig:mean 	16.166666666667
scalar Network.dyn_peer[67] 	lookupTimeSig:mean 	1.13
scalar Network.dyn_peer[67] 	lookupStabilitySig:mean 	0.71858301758766
scalar Network.dyn_peer[67] 	lookupHopsSig:mean 	10.4
scalar Network.dyn_peer[68] 	lookupTimeSig:mean 	1.48
scalar Network.dyn_peer[68] 	lookupStabilitySig:mean 	0.39038372728974
scalar Network.dyn_peer[68] 	lookupHopsSig:mean 	14
scalar Network.dyn_peer[69] 	lookupTimeSig:mean 	2.22
scalar Network.dyn_peer[69] 	lookupStabilitySig:mean 	0.48207599073648
scalar Network.dyn_peer[69] 	lookupHopsSig:mean 	21.4
scalar Network.dyn_peer[70] 	lookupTimeSig:mean 	2.15
scalar Network.dyn_peer[70] 	lookupStabilitySig:mean 	0.58461537212133
scalar Network.dyn_peer[70] 	lookupHopsSig:mean 	21
scalar Network.dyn_peer[71] 	lookupTimeSig:mean 	3.4333333333333
scalar Network.dyn_peer[71] 	lookupStabilitySig:mean 	0.81189421315988
scalar Network.dyn_peer[71] 	lookupHopsSig:mean 	33.666666666667
scalar Network.dyn_peer[72] 	lookupTimeSig:mean 	1.975
scalar Network.dyn_peer[72] 	lookupStabilitySig:mean 	0.47761627659202
scalar Network.dyn_peer[72] 	lookupHopsSig:mean 	19
scalar Network.dyn_peer[73] 	lookupTimeSig:mean 	1.9666666666667
scalar Network.dyn_peer[73] 	lookupStabilitySig:mean 	0.5185992543896
scalar Network.dyn_peer[73] 	lookupHopsSig:mean 	18.833333333333
scalar Network.dyn_peer[74] 	lookupTimeSig:mean 	1.0285714285714
scalar Network.dyn_peer[74] 	lookupStabilitySig:mean 	0.49177780321666
scalar Network.dyn_peer[74] 	lookupHopsSig:mean 	9.4285714285714
scalar Network.dyn_peer[75] 	lookupTimeSig:mean 	3.34
scalar Network.dyn_peer[75] 	lookupStabilitySig:mean 	0.60642400123179
scalar Network.dyn_peer[75] 	lookupHopsSig:mean 	32.6
scalar Network.dyn_peer[76] 	lookupTimeSig:mean 	2.92
scalar Network.dyn_peer[76] 	lookupStabilitySig:mean 	0.41478903107345
scalar Network.dyn_peer[76] 	lookupHopsSig:mean 	28.4
scalar Network.dyn_peer[77] 	lookupTimeSig:mean 	1.0375
scalar Network.dyn_peer[77] 	lookupStabilitySig:mean 	0.61894841352478
scalar Network.dyn_peer[77] 	lookupHopsSig:mean 	9.5
scalar Network.dyn_peer[78] 	lookupTimeSig:mean 	2.1
scalar Network.dyn_peer[78] 	lookupStabilitySig:mean 	0.68371843211353
scalar Network.dyn_peer[78] 	lookupHopsSig:mean 	20.2
scalar Network.dyn_peer[79] 	lookupTimeSig:mean 	1.675
scalar Network.dyn_peer[79] 	lookupStabilitySig:mean 	0.33905540406704
scalar Network.dyn_peer[79] 	lookupHopsSig:mean 	16
scalar Network.dyn_peer[80] 	lookupTimeSig:mean 	1.0714285714286
scalar Network.dyn_peer[80] 	lookupStabilitySig:mean 	0.52171827453588
scalar Network.dyn_peer[80] 	lookupHopsSig:mean 	9.8571428571429
scalar Network.dyn_peer[81] 	lookupTimeSig:mean 	1.6909090909091
scalar Network.dyn_peer[81] 	lookupStabilitySig:mean 	0.86219232567501
scalar Network.dyn_peer[81] 	lookupHopsSig:mean 	16
scalar Network.dyn_peer[82] 	lookupTimeSig:mean 	1.8333333333333
scalar Network.dyn_peer[82] 	lookupStabilitySig:mean 	0.40582925950487
scalar Network.dyn_peer[82] 	lookupHopsSig:mean 	17.5
scalar Network.dyn_peer[83] 	lookupTimeSig:mean 	2.6666666666667
scalar Network.dyn_peer[83] 	lookupStabilitySig:mean 	0.087186406056086
scalar Network.dyn_peer[83] 	lookupHopsSig:mean 	26
scalar Network.dyn_peer[84] 	lookupTimeSig:mean 	2.45
scalar Network.dyn_peer[84] 	lookupStabilitySig:mean 	0.80623088404536
scalar Network.dyn_peer[84] 	lookupHopsSig:mean 	23.75
scalar Network.dyn_peer[85] 	lookupTimeSig:mean 	1.8
scalar Network.dyn_peer[85] 	lookupStabilitySig:mean 	0.65168664976954
scalar Network.dyn_peer[85] 	lookupHopsSig:mean 	17.2
scalar Network.dyn_peer[86] 	lookupTimeSig:mean 	3.8333333333333
scalar Network.dyn_peer[86] 	lookupStabilitySig:mean 	0.45237098137538
scalar Network.dyn_peer[86] 	lookupHopsSig:mean 	37.666666666667
scalar Network.dyn_peer[87] 	lookupTimeSig:mean 	1.54
scalar Network.dyn_peer[87] 	lookupStabilitySig:mean 	0.77978149838746
scalar Network.dyn_peer[87] 	lookupHopsSig:mean 	14.6
scalar Network.dyn_peer[88] 	lookupTimeSig:mean 	1.225
scalar Network.dyn_peer[88] 	lookupStabilitySig:mean 	0.17646103352308
scalar Network.dyn_peer[88] 	lookupHopsSig:mean 	11.5
scalar Network.dyn_peer[89] 	lookupTimeSig:mean 	2.34
scalar Network.dyn_peer[89] 	lookupStabilitySig:mean 	0.6532616995275
scalar Network.dyn_peer[89] 	lookupHopsSig:mean 	22.6
scalar Network.dyn_peer[90] 	lookupTimeSig:mean 	1.75
scalar Network.dyn_peer[90] 	lookupStabilitySig:mean 	0.18681727815419
scalar Network.dyn_peer[90] 	lookupHopsSig:mean 	16.75
scalar Network.dyn_peer[91] 	lookupTimeSig:mean 	1.4
scalar Network.dyn_peer[91] 	lookupStabilitySig:mean 	0.55679007619619
scalar Network.dyn_peer[91] 	lookupHopsSig:mean 	13.125
scalar Network.dyn_peer[92] 	lookupTimeSig:mean 	3.175
scalar Network.dyn_peer[92] 	lookupStabilitySig:mean 	0.43892807513475
scalar Network.dyn_peer[92] 	lookupHopsSig:mean 	31
scalar Network.dyn_peer[93] 	lookupTimeSig:mean 	1.6
scalar Network.dyn_peer[93] 	lookupStabilitySig:mean 	0.51238423452846
scalar Network.dyn_peer[93] 	lookupHopsSig:mean 	15.142857142857
scalar Network.dyn_peer[94] 	lookupTimeSig:mean 	2.18
scalar Network.dyn_peer[94] 	lookupStabilitySig:mean 	0.83222698308527
scalar Network.dyn_peer[94] 	lookupHopsSig:mean 	21
scalar Network.dyn_peer[95] 	lookupTimeSig:mean 	1.66
scalar Network.dyn_peer[95] 	lookupStabilitySig:mean 	0.70450604800135
scalar Network.dyn_peer[95] 	lookupHopsSig:mean 	15.7
scalar Network.dyn_peer[96] 	lookupTimeSig:mean 	1.5727272727273
scalar Network.dyn_peer[96] 	lookupStabilitySig:mean 	0.70108455961401
scalar Network.dyn_peer[96] 	lookupHopsSig:mean 	14.818181818182
scalar Network.dyn_peer[97] 	lookupTimeSig:mean 	1.875
scalar Network.dyn_peer[97] 	lookupStabilitySig:mean 	0.65441819955595
scalar Network.dyn_peer[97] 	lookupHopsSig:mean 	17.875
scalar Network.dyn_peer[98] 	lookupTimeSig:mean 	1.6533333333333
scalar Network.dyn_peer[98] 	lookupStabilitySig:mean 	0.7477415131405
scalar Network.dyn_peer[98] 	lookupHopsSig:mean 	15.6
scalar Network.dyn_peer[99] 	lookupTimeSig:mean 	1.22
scalar Network.dyn_peer[99] 	lookupStabilitySig:mean 	0.79178434298374
scalar Network.dyn_peer[99] 	lookupHopsSig:mean 	11.266666666667
scalar Network.dyn_peer[100] 	lookupTimeSig:mean 	1.7
scalar Network.dyn_peer[100] 	lookupStabilitySig:mean 	0.66146615007892
scalar Network.dyn_peer[100] 	lookupHopsSig:mean 	16.125
scalar Network.dyn_peer[101] 	lookupTimeSig:mean 	1.175
scalar Network.dyn_peer[101] 	lookupStabilitySig:mean 	0.58944310434163
scalar Network.dyn_peer[101] 	lookupHopsSig:mean 	11
scalar Network.dyn_peer[102] 	lookupTimeSig:mean 	3.3
scalar Network.dyn_peer[102] 	lookupStabilitySig:mean 	0.29467025026679
scalar Network.dyn_peer[102] 	lookupHopsSig:mean 	32.25
scalar Network.dyn_peer[103] 	lookupTimeSig:mean 	1.5875
scalar Network.dyn_peer[103] 	lookupStabilitySig:mean 	0.85787926218472
scalar Network.dyn_peer[103] 	lookupHopsSig:mean 	15
scalar Network.dyn_peer[104] 	lookupTimeSig:mean 	3.975
scalar Network.dyn_peer[104] 	lookupStabilitySig:mean 	0.27809665724635
scalar Network.dyn_peer[104] 	lookupHopsSig:mean 	39
scalar Network.dyn_peer[105] 	lookupTimeSig:mean 	1.75
scalar Network.dyn_peer[105] 	lookupStabilitySig:mean 	0.73298037461936
scalar Network.dyn_peer[105] 	lookupHopsSig:mean 	16.6
scalar Network.dyn_peer[106] 	lookupTimeSig:mean 	1.62
scalar Network.dyn_peer[106] 	lookupStabilitySig:mean 	0.75248932372779
scalar Network.dyn_peer[106] 	lookupHopsSig:mean 	15.3
scalar Network.dyn_peer[107] 	lookupTimeSig:mean 	2.55
scalar Network.dyn_peer[107] 	lookupStabilitySig:mean 	0.45375724509358
scalar Network.dyn_peer[107] 	lookupHopsSig:mean 	24.75
scalar Network.dyn_peer[108] 	lookupTimeSig:mean 	0.98
scalar Network.dyn_peer[108] 	lookupStabilitySig:mean 	0.39806192964315
scalar Network.dyn_peer[108] 	lookupHopsSig:mean 	9
scalar Network.dyn_peer[109] 	lookupTimeSig:mean 	1
scalar Network.dyn_peer[109] 	lookupStabilitySig:mean 	0.54204188074384
scalar Network.dyn_peer[109] 	lookupHopsSig:mean 	9.1428571428571
scalar Network.dyn_peer[110] 	lookupTimeSig:mean 	2.34
scalar Network.dyn_peer[110] 	lookupStabilitySig:mean 	0.39712228104472
scalar Network.dyn_peer[110] 	lookupHopsSig:mean 	22.6
scalar Network.dyn_peer[111] 	lookupTimeSig:mean 	1.6
scalar Network.dyn_peer[111] 	lookupStabilitySig:mean 	0.55341519974172
scalar Network.dyn_peer[111] 	lookupHopsSig:mean 	15.166666666667
scalar Network.dyn_peer[112] 	lookupTimeSig:mean 	2.4666666666667
scalar Network.dyn_peer[112] 	lookupStabilitySig:mean 	-0.046405250827471
scalar Network.dyn_peer[112] 	lookupHopsSig:mean 	24
scalar Network.dyn_peer[113] 	lookupTimeSig:mean 	1.7
scalar Network.dyn_peer[113] 	lookupStabilitySig:mean 	0.73646049946547
scalar Network.dyn_peer[113] 	lookupHopsSig:mean 	16.25
scalar Network.dyn_peer[114] 	lookupTimeSig:mean 	1.7333333333333
scalar Network.dyn_peer[114] 	lookupStabilitySig:mean 	0.44906646634142
scalar Network.dyn_peer[114] 	lookupHopsSig:mean 	16.5
scalar Network.dyn_peer[115] 	lookupTimeSig:mean 	1.8454545454545
scalar Network.dyn_peer[115] 	lookupStabilitySig:mean 	0.73254728452726
scalar Network.dyn_peer[115] 	lookupHopsSig:mean 	17.545454545455
scalar Network.dyn_peer[116] 	lookupTimeSig:mean 	1.925
scalar Network.dyn_peer[116] 	lookupStabilitySig:mean 	0.55841164849699
scalar Network.dyn_peer[116] 	lookupHopsSig:mean 	18.5
scalar Network.dyn_peer[117] 	lookupTimeSig:mean 	2.6333333333333
scalar Network.dyn_peer[117] 	lookupStabilitySig:mean 	0.22742424408595
scalar Network.dyn_peer[117] 	lookupHopsSig:mean 	25.666666666667
scalar Network.dyn_peer[118] 	lookupTimeSig:mean 	1.825
scalar Network.dyn_peer[118] 	lookupStabilitySig:mean 	0.73764697648585
scalar Network.dyn_peer[118] 	lookupHopsSig:mean 	17.5
scalar Network.dyn_peer[119] 	lookupTimeSig:mean 	3.35
scalar Network.dyn_peer[119] 	lookupStabilitySig:mean 	0.55246595945209
scalar Network.dyn_peer[119] 	lookupHopsSig:mean 	32.75
scalar Network.dyn_peer[120] 	lookupTimeSig:mean 	2.1888888888889
scalar Network.dyn_peer[120] 	lookupStabilitySig:mean 	0.92303198555277
scalar Network.dyn_peer[120] 	lookupHopsSig:mean 	21
scalar Network.dyn_peer[121] 	lookupTimeSig:mean 	1.04
scalar Network.dyn_peer[121] 	lookupStabilitySig:mean 	0.49171550590545
scalar Network.dyn_peer[121] 	lookupHopsSig:mean 	9.6
scalar Network.dyn_peer[122] 	lookupTimeSig:mean 	1.625
scalar Network.dyn_peer[122] 	lookupStabilitySig:mean 	0.31086215190589
scalar Network.dyn_peer[122] 	lookupHopsSig:mean 	15.5
scalar Network.dyn_peer[123] 	lookupTimeSig:mean 	1.4666666666667
scalar Network.dyn_peer[123] 	lookupStabilitySig:mean 	0.774824326444
scalar Network.dyn_peer[123] 	lookupHopsSig:mean 	13.777777777778
scalar Network.dyn_peer[124] 	lookupTimeSig:mean 	1.1666666666667
scalar Network.dyn_peer[124] 	lookupStabilitySig:mean 	0.43342136374364
scalar Network.dyn_peer[124] 	lookupHopsSig:mean 	10.833333333333
scalar Network.dyn_peer[125] 	lookupTimeSig:mean 	1.84
scalar Network.dyn_peer[125] 	lookupStabilitySig:mean 	0.54729673564434
scalar Network.dyn_peer[125] 	lookupHopsSig:mean 	17.6
scalar Network.dyn_peer[126] 	lookupTimeSig:mean 	2.4555555555556
scalar Network.dyn_peer[126] 	lookupStabilitySig:mean 	0.87188666375975
scalar Network.dyn_peer[126] 	lookupHopsSig:mean 	23.666666666667
scalar Network.dyn_peer[127] 	lookupTimeSig:mean 	0.91666666666667
scalar Network.dyn_peer[127] 	lookupStabilitySig:mean 	0.44538315509756
scalar Network.dyn_peer[127] 	lookupHopsSig:mean 	8.3333333333333
scalar Network.dyn_peer[128] 	lookupTimeSig:mean 	1.65
scalar Network.dyn_peer[128] 	lookupStabilitySig:mean 	0.25444614700973
scalar Network.dyn_peer[128] 	lookupHopsSig:mean 	15.75
scalar Network.dyn_peer[129] 	lookupTimeSig:mean 	4.25
scalar Network.dyn_peer[129] 	lookupStabilitySig:mean 	0.66644950211048
scalar Network.dyn_peer[129] 	lookupHopsSig:mean 	42
scalar Network.dyn_peer[130] 	lookupTimeSig:mean 	1.86
scalar Network.dyn_peer[130] 	lookupStabilitySig:mean 	0.67285249922425
scalar Network.dyn_peer[130] 	lookupHopsSig:mean 	17.7
scalar Network.dyn_peer[131] 	lookupTimeSig:mean 	1.775
scalar Network.dyn_peer[131] 	lookupStabilitySig:mean 	0.48817545361817
scalar Network.dyn_peer[131] 	lookupHopsSig:mean 	17
scalar Network.dyn_peer[132] 	lookupTimeSig:mean 	1.55
scalar Network.dyn_peer[132] 	lookupStabilitySig:mean 	0.75712120217005
scalar Network.dyn_peer[132] 	lookupHopsSig:mean 	14.571428571429
scalar Network.dyn_peer[133] 	lookupTimeSig:mean 	1.7666666666667
scalar Network.dyn_peer[133] 	lookupStabilitySig:mean 	0.60257639735937
scalar Network.dyn_peer[133] 	lookupHopsSig:mean 	17
scalar Network.dyn_peer[134] 	lookupTimeSig:mean 	2.86
scalar Network.dyn_peer[134] 	lookupStabilitySig:mean 	0.3783758468926
scalar Network.dyn_peer[134] 	lookupHopsSig:mean 	27.8
scalar Network.dyn_peer[135] 	lookupTimeSig:mean 	2.65
scalar Network.dyn_peer[135] 	lookupStabilitySig:mean 	0.53449823521078
scalar Network.dyn_peer[135] 	lookupHopsSig:mean 	25.75
scalar Network.dyn_peer[136] 	lookupTimeSig:mean 	1.37
scalar Network.dyn_peer[136] 	lookupStabilitySig:mean 	0.87431680914015
scalar Network.dyn_peer[136] 	lookupHopsSig:mean 	12.8
scalar Network.dyn_peer[137] 	lookupTimeSig:mean 	1.77
scalar Network.dyn_peer[137] 	lookupStabilitySig:mean 	0.79887979123741
scalar Network.dyn_peer[137] 	lookupHopsSig:mean 	16.8
scalar Network.dyn_peer[138] 	lookupTimeSig:mean 	2.4
scalar Network.dyn_peer[138] 	lookupStabilitySig:mean 	0.8641670672223
scalar Network.dyn_peer[138] 	lookupHopsSig:mean 	23.25
scalar Network.dyn_peer[139] 	lookupTimeSig:mean 	1.5733333333333
scalar Network.dyn_peer[139] 	lookupStabilitySig:mean 	0.82013206390354
scalar Network.dyn_peer[139] 	lookupHopsSig:mean 	14.8
scalar Network.dyn_peer[140] 	lookupTimeSig:mean 	2.0166666666667
scalar Network.dyn_peer[140] 	lookupStabilitySig:mean 	0.48276338260621
scalar Network.dyn_peer[140] 	lookupHopsSig:mean 	19.333333333333
scalar Network.dyn_peer[141] 	lookupTimeSig:mean 	1.2285714285714
scalar Network.dyn_peer[141] 	lookupStabilitySig:mean 	0.68158238354538
scalar Network.dyn_peer[141] 	lookupHopsSig:mean 	11.428571428571
scalar Network.dyn_peer[142] 	lookupTimeSig:mean 	1.85
scalar Network.dyn_peer[142] 	lookupStabilitySig:mean 	0.56938424830635
scalar Network.dyn_peer[142] 	lookupHopsSig:mean 	17.666666666667
scalar Network.dyn_peer[143] 	lookupTimeSig:mean 	2.6
scalar Network.dyn_peer[143] 	lookupStabilitySig:mean 	0.18252672255039
scalar Network.dyn_peer[143] 	lookupHopsSig:mean 	25.25
scalar Network.dyn_peer[144] 	lookupTimeSig:mean 	6.8
scalar Network.dyn_peer[144] 	lookupStabilitySig:mean 	-0.098736174404621
scalar Network.dyn_peer[144] 	lookupHopsSig:mean 	67.5
scalar Network.dyn_peer[145] 	lookupTimeSig:mean 	1.4166666666667
scalar Network.dyn_peer[145] 	lookupStabilitySig:mean 	0.74272211780772
scalar Network.dyn_peer[145] 	lookupHopsSig:mean 	13.25
scalar Network.dyn_peer[146] 	lookupTimeSig:mean 	2.0222222222222
scalar Network.dyn_peer[146] 	lookupStabilitySig:mean 	0.93710751127866
scalar Network.dyn_peer[146] 	lookupHopsSig:mean 	19.333333333333
scalar Network.dyn_peer[147] 	lookupTimeSig:mean 	3.2666666666667
scalar Network.dyn_peer[147] 	lookupStabilitySig:mean 	0.7136947363615
scalar Network.dyn_peer[147] 	lookupHopsSig:mean 	32
scalar Network.dyn_peer[148] 	lookupTimeSig:mean 	1.4333333333333
scalar Network.dyn_peer[148] 	lookupStabilitySig:mean 	0.373075855275
scalar Network.dyn_peer[148] 	lookupHopsSig:mean 	13.666666666667
scalar Network.dyn_peer[149] 	lookupTimeSig:mean 	1.5166666666667
scalar Network.dyn_peer[149] 	lookupStabilitySig:mean 	0.59213082119823
scalar Network.dyn_peer[149] 	lookupHopsSig:mean 	14.333333333333
scalar Network.dyn_peer[150] 	lookupTimeSig:mean 	2
scalar Network.dyn_peer[150] 	lookupStabilitySig:mean 	0.41309590265155
scalar Network.dyn_peer[150] 	lookupHopsSig:mean 	19.2
scalar Network.dyn_peer[151] 	lookupTimeSig:mean 	3.625
scalar Network.dyn_peer[151] 	lookupStabilitySig:mean 	0.43966650497168
scalar Network.dyn_peer[151] 	lookupHopsSig:mean 	35.5
scalar Network.dyn_peer[152] 	lookupTimeSig:mean 	1.675
scalar Network.dyn_peer[152] 	lookupStabilitySig:mean 	0.73827404109761
scalar Network.dyn_peer[152] 	lookupHopsSig:mean 	15.875
scalar Network.dyn_peer[153] 	lookupTimeSig:mean 	1.34
scalar Network.dyn_peer[153] 	lookupStabilitySig:mean 	0.78698183149099
scalar Network.dyn_peer[153] 	lookupHopsSig:mean 	12.5
scalar Network.dyn_peer[154] 	lookupTimeSig:mean 	1.85
scalar Network.dyn_peer[154] 	lookupStabilitySig:mean 	0.68530296968917
scalar Network.dyn_peer[154] 	lookupHopsSig:mean 	17.666666666667
scalar Network.dyn_peer[155] 	lookupTimeSig:mean 	2.55
scalar Network.dyn_peer[155] 	lookupStabilitySig:mean 	0.6957816198701
scalar Network.dyn_peer[155] 	lookupHopsSig:mean 	24.666666666667
scalar Network.dyn_peer[156] 	lookupTimeSig:mean 	3.025
scalar Network.dyn_peer[156] 	lookupStabilitySig:mean 	0.77077966218349
scalar Network.dyn_peer[156] 	lookupHopsSig:mean 	29.5
scalar Network.dyn_peer[157] 	lookupTimeSig:mean 	1.15
scalar Network.dyn_peer[157] 	lookupStabilitySig:mean 	0.21994411479682
scalar Network.dyn_peer[157] 	lookupHopsSig:mean 	10.75
scalar Network.dyn_peer[158] 	lookupTimeSig:mean 	3.4166666666667
scalar Network.dyn_peer[158] 	lookupStabilitySig:mean 	0.80206126828368
scalar Network.dyn_peer[158] 	lookupHopsSig:mean 	33.333333333333
scalar Network.dyn_peer[159] 	lookupTimeSig:mean 	1.85
scalar Network.dyn_peer[159] 	lookupStabilitySig:mean 	0.91181460544467
scalar Network.dyn_peer[159] 	lookupHopsSig:mean 	17.6
scalar Network.dyn_peer[160] 	lookupTimeSig:mean 	2.4
scalar Network.dyn_peer[160] 	lookupStabilitySig:mean 	0.57535781392029
scalar Network.dyn_peer[160] 	lookupHopsSig:mean 	23.142857142857
scalar Network.dyn_peer[161] 	lookupTimeSig:mean 	1.1846153846154
scalar Network.dyn_peer[161] 	lookupStabilitySig:mean 	0.94606878407873
scalar Network.dyn_peer[161] 	lookupHopsSig:mean 	10.923076923077
scalar Network.dyn_peer[162] 	lookupTimeSig:mean 	1.3142857142857
scalar Network.dyn_peer[162] 	lookupStabilitySig:mean 	0.56428646442613
scalar Network.dyn_peer[162] 	lookupHopsSig:mean 	12.285714285714
scalar Network.dyn_peer[163] 	lookupTimeSig:mean 	2.36
scalar Network.dyn_peer[163] 	lookupStabilitySig:mean 	0.75930110793561
scalar Network.dyn_peer[163] 	lookupHopsSig:mean 	22.8
scalar Network.dyn_peer[164] 	lookupTimeSig:mean 	2.1636363636364
scalar Network.dyn_peer[164] 	lookupStabilitySig:mean 	0.68963128446855
scalar Network.dyn_peer[164] 	lookupHopsSig:mean 	20.727272727273
scalar Network.dyn_peer[165] 	lookupTimeSig:mean 	3.05
scalar Network.dyn_peer[165] 	lookupStabilitySig:mean 	0.61628220230341
scalar Network.dyn_peer[165] 	lookupHopsSig:mean 	30
scalar Network.dyn_peer[166] 	lookupTimeSig:mean 	1.175
scalar Network.dyn_peer[166] 	lookupStabilitySig:mean 	0.5997318001464
scalar Network.dyn_peer[166] 	lookupHopsSig:mean 	11
scalar Network.dyn_peer[167] 	lookupTimeSig:mean 	3.65
scalar Network.dyn_peer[167] 	lookupStabilitySig:mean 	0.87005825527012
scalar Network.dyn_peer[167] 	lookupHopsSig:mean 	35.75
scalar Network.dyn_peer[168] 	lookupTimeSig:mean 	1.2636363636364
scalar Network.dyn_peer[168] 	lookupStabilitySig:mean 	0.90323868846859
scalar Network.dyn_peer[168] 	lookupHopsSig:mean 	11.727272727273
scalar Network.dyn_peer[169] 	lookupTimeSig:mean 	3.75
scalar Network.dyn_peer[169] 	lookupStabilitySig:mean 	-0.058467008173466
scalar Network.dyn_peer[169] 	lookupHopsSig:mean 	37
scalar Network.dyn_peer[170] 	lookupTimeSig:mean 	2.475
scalar Network.dyn_peer[170] 	lookupStabilitySig:mean 	0.33485510665923
scalar Network.dyn_peer[170] 	lookupHopsSig:mean 	24
scalar Network.dyn_peer[171] 	lookupTimeSig:mean 	1.9875
scalar Network.dyn_peer[171] 	lookupStabilitySig:mean 	0.75287653389387
scalar Network.dyn_peer[171] 	lookupHopsSig:mean 	19
scalar Network.dyn_peer[172] 	lookupTimeSig:mean 	1.5
scalar Network.dyn_peer[172] 	lookupStabilitySig:mean 	0.80432333983481
scalar Network.dyn_peer[172] 	lookupHopsSig:mean 	14.25
scalar Network.dyn_peer[173] 	lookupTimeSig:mean 	1.35
scalar Network.dyn_peer[173] 	lookupStabilitySig:mean 	0.31061151716858
scalar Network.dyn_peer[173] 	lookupHopsSig:mean 	12.75
scalar Network.dyn_peer[174] 	lookupTimeSig:mean 	1.28
scalar Network.dyn_peer[174] 	lookupStabilitySig:mean 	0.68973680362105
scalar Network.dyn_peer[174] 	lookupHopsSig:mean 	11.9
scalar Network.dyn_peer[175] 	lookupTimeSig:mean 	2.1375
scalar Network.dyn_peer[175] 	lookupStabilitySig:mean 	0.73232893203385
scalar Network.dyn_peer[175] 	lookupHopsSig:mean 	20.5
scalar Network.dyn_peer[176] 	lookupTimeSig:mean 	1.92
scalar Network.dyn_peer[176] 	lookupStabilitySig:mean 	0.93668236415833
scalar Network.dyn_peer[176] 	lookupHopsSig:mean 	18.3
scalar Network.dyn_peer[177] 	lookupTimeSig:mean 	1.72
scalar Network.dyn_peer[177] 	lookupStabilitySig:mean 	0.67556691765785
scalar Network.dyn_peer[177] 	lookupHopsSig:mean 	16.4
scalar Network.dyn_peer[178] 	lookupTimeSig:mean 	1.3375
scalar Network.dyn_peer[178] 	lookupStabilitySig:mean 	0.58978281752206
scalar Network.dyn_peer[178] 	lookupHopsSig:mean 	12.5
scalar Network.dyn_peer[179] 	lookupTimeSig:mean 	3.06
scalar Network.dyn_peer[179] 	lookupStabilitySig:mean 	0.80998056083918
scalar Network.dyn_peer[179] 	lookupHopsSig:mean 	29.8
scalar Network.dyn_peer[180] 	lookupTimeSig:mean 	1.8625
scalar Network.dyn_peer[180] 	lookupStabilitySig:mean 	0.56531521456782
scalar Network.dyn_peer[180] 	lookupHopsSig:mean 	17.75
scalar Network.dyn_peer[181] 	lookupTimeSig:mean 	3.7666666666667
scalar Network.dyn_peer[181] 	lookupStabilitySig:mean 	0.8034336840113
scalar Network.dyn_peer[181] 	lookupHopsSig:mean 	37
scalar Network.dyn_peer[182] 	lookupTimeSig:mean 	3.0714285714286
scalar Network.dyn_peer[182] 	lookupStabilitySig:mean 	0.83839871614639
scalar Network.dyn_peer[182] 	lookupHopsSig:mean 	29.857142857143
scalar Network.dyn_peer[183] 	lookupTimeSig:mean 	2.7428571428571
scalar Network.dyn_peer[183] 	lookupStabilitySig:mean 	0.92017396619277
scalar Network.dyn_peer[183] 	lookupHopsSig:mean 	26.571428571429
scalar Network.dyn_peer[184] 	lookupTimeSig:mean 	1.75
scalar Network.dyn_peer[184] 	lookupStabilitySig:mean 	0.70279955654405
scalar Network.dyn_peer[184] 	lookupHopsSig:mean 	16.625
scalar Network.dyn_peer[185] 	lookupTimeSig:mean 	1.95
scalar Network.dyn_peer[185] 	lookupStabilitySig:mean 	0.098379626870155
scalar Network.dyn_peer[185] 	lookupHopsSig:mean 	19
scalar Network.dyn_peer[186] 	lookupTimeSig:mean 	2.95
scalar Network.dyn_peer[186] 	lookupStabilitySig:mean 	0.69994257576764
scalar Network.dyn_peer[186] 	lookupHopsSig:mean 	28.75
scalar Network.dyn_peer[187] 	lookupTimeSig:mean 	1.5833333333333
scalar Network.dyn_peer[187] 	lookupStabilitySig:mean 	0.77031956473365
scalar Network.dyn_peer[187] 	lookupHopsSig:mean 	15
scalar Network.dyn_peer[188] 	lookupTimeSig:mean 	1.9777777777778
scalar Network.dyn_peer[188] 	lookupStabilitySig:mean 	0.65091834444967
scalar Network.dyn_peer[188] 	lookupHopsSig:mean 	18.888888888889
scalar Network.dyn_peer[189] 	lookupTimeSig:mean 	1.775
scalar Network.dyn_peer[189] 	lookupStabilitySig:mean 	0.93143785255961
scalar Network.dyn_peer[189] 	lookupHopsSig:mean 	16.875
scalar Network.dyn_peer[190] 	lookupTimeSig:mean 	1.6375
scalar Network.dyn_peer[190] 	lookupStabilitySig:mean 	0.70998960686848
scalar Network.dyn_peer[190] 	lookupHopsSig:mean 	15.5
scalar Network.dyn_peer[191] 	lookupTimeSig:mean 	3.5
scalar Network.dyn_peer[191] 	lookupStabilitySig:mean 	0.25432897359133
scalar Network.dyn_peer[191] 	lookupHopsSig:mean 	34.5
scalar Network.dyn_peer[192] 	lookupTimeSig:mean 	2.05
scalar Network.dyn_peer[192] 	lookupStabilitySig:mean 	0.29948220029473
scalar Network.dyn_peer[192] 	lookupHopsSig:mean 	19.75
scalar Network.dyn_peer[193] 	lookupTimeSig:mean 	2.1666666666667
scalar Network.dyn_peer[193] 	lookupStabilitySig:mean 	0.46465895821651
scalar Network.dyn_peer[193] 	lookupHopsSig:mean 	21
scalar Network.dyn_peer[194] 	lookupTimeSig:mean 	1.9
scalar Network.dyn_peer[194] 	lookupStabilitySig:mean 	0.33347858736912
scalar Network.dyn_peer[194] 	lookupHopsSig:mean 	18.333333333333
scalar Network.dyn_peer[195] 	lookupTimeSig:mean 	1.45
scalar Network.dyn_peer[195] 	lookupStabilitySig:mean 	0.57432192377746
scalar Network.dyn_peer[195] 	lookupHopsSig:mean 	13.75
scalar Network.dyn_peer[196] 	lookupTimeSig:mean 	3
scalar Network.dyn_peer[196] 	lookupStabilitySig:mean 	0.16920027881861
scalar Network.dyn_peer[196] 	lookupHopsSig:mean 	29.5
scalar Network.dyn_peer[197] 	lookupTimeSig:mean 	1.8285714285714
scalar Network.dyn_peer[197] 	lookupStabilitySig:mean 	0.52809719634908
scalar Network.dyn_peer[197] 	lookupHopsSig:mean 	17.428571428571
scalar Network.dyn_peer[198] 	lookupTimeSig:mean 	2.12
scalar Network.dyn_peer[198] 	lookupStabilitySig:mean 	0.82810931503773
scalar Network.dyn_peer[198] 	lookupHopsSig:mean 	20.4
scalar Network.dyn_peer[199] 	lookupTimeSig:mean 	2.4
scalar Network.dyn_peer[199] 	lookupStabilitySig:mean 	0.68639039695263
scalar Network.dyn_peer[199] 	lookupHopsSig:mean 	23.2
scalar Network.dyn_peer[200] 	lookupTimeSig:mean 	1.52
scalar Network.dyn_peer[200] 	lookupStabilitySig:mean 	0.4285622600466
scalar Network.dyn_peer[200] 	lookupHopsSig:mean 	14.4
scalar Network.dyn_peer[201] 	lookupTimeSig:mean 	1.225
scalar Network.dyn_peer[201] 	lookupStabilitySig:mean 	0.5665494807763
scalar Network.dyn_peer[201] 	lookupHopsSig:mean 	11.375
scalar Network.dyn_peer[202] 	lookupTimeSig:mean 	2.2181818181818
scalar Network.dyn_peer[202] 	lookupStabilitySig:mean 	0.9511148894883
scalar Network.dyn_peer[202] 	lookupHopsSig:mean 	21.272727272727
scalar Network.dyn_peer[203] 	lookupTimeSig:mean 	7.2
scalar Network.dyn_peer[203] 	lookupStabilitySig:mean 	0.66409825533628
scalar Network.dyn_peer[203] 	lookupHopsSig:mean 	71.5
scalar Network.dyn_peer[204] 	lookupTimeSig:mean 	2.1111111111111
scalar Network.dyn_peer[204] 	lookupStabilitySig:mean 	0.91729040071368
scalar Network.dyn_peer[204] 	lookupHopsSig:mean 	20.222222222222
scalar Network.dyn_peer[205] 	lookupTimeSig:mean 	2.2
scalar Network.dyn_peer[205] 	lookupStabilitySig:mean 	0.3571428284049
scalar Network.dyn_peer[205] 	lookupHopsSig:mean 	21.5
scalar Network.dyn_peer[206] 	lookupTimeSig:mean 	1.7428571428571
scalar Network.dyn_peer[206] 	lookupStabilitySig:mean 	0.53225447769676
scalar Network.dyn_peer[206] 	lookupHopsSig:mean 	16.571428571429
scalar Network.dyn_peer[207] 	lookupTimeSig:mean 	2.04
scalar Network.dyn_peer[207] 	lookupStabilitySig:mean 	0.5715451002121
scalar Network.dyn_peer[207] 	lookupHopsSig:mean 	19.6
scalar Network.dyn_peer[208] 	lookupTimeSig:mean 	2.2625
scalar Network.dyn_peer[208] 	lookupStabilitySig:mean 	0.91770419222303
scalar Network.dyn_peer[208] 	lookupHopsSig:mean 	21.75
scalar Network.dyn_peer[209] 	lookupTimeSig:mean 	1.7428571428571
scalar Network.dyn_peer[209] 	lookupStabilitySig:mean 	0.59570220432111
scalar Network.dyn_peer[209] 	lookupHopsSig:mean 	16.571428571429
scalar Network.dyn_peer[210] 	lookupTimeSig:mean 	2.74
scalar Network.dyn_peer[210] 	lookupStabilitySig:mean 	0.88040615059435
scalar Network.dyn_peer[210] 	lookupHopsSig:mean 	26.6
scalar Network.dyn_peer[211] 	lookupTimeSig:mean 	1.9142857142857
scalar Network.dyn_peer[211] 	lookupStabilitySig:mean 	0.92115260900131
scalar Network.dyn_peer[211] 	lookupHopsSig:mean 	18.285714285714
scalar Network.dyn_peer[212] 	lookupTimeSig:mean 	1.3625
scalar Network.dyn_peer[212] 	lookupStabilitySig:mean 	0.59263793122955
scalar Network.dyn_peer[212] 	lookupHopsSig:mean 	12.75
scalar Network.dyn_peer[213] 	lookupTimeSig:mean 	1
scalar Network.dyn_peer[213] 	lookupStabilitySig:mean 	0.32026834785938
scalar Network.dyn_peer[213] 	lookupHopsSig:mean 	9.25
scalar Network.dyn_peer[214] 	lookupTimeSig:mean 	2.625
scalar Network.dyn_peer[214] 	lookupStabilitySig:mean 	0.83623071573675
scalar Network.dyn_peer[214] 	lookupHopsSig:mean 	25.5
scalar Network.dyn_peer[215] 	lookupTimeSig:mean 	1.9333333333333
scalar Network.dyn_peer[215] 	lookupStabilitySig:mean 	0.93348909386744
scalar Network.dyn_peer[215] 	lookupHopsSig:mean 	18.444444444444
scalar Network.dyn_peer[216] 	lookupTimeSig:mean 	2.4
scalar Network.dyn_peer[216] 	lookupStabilitySig:mean 	0.24135639425367
scalar Network.dyn_peer[216] 	lookupHopsSig:mean 	23.25
scalar Network.dyn_peer[217] 	lookupTimeSig:mean 	2.15
scalar Network.dyn_peer[217] 	lookupStabilitySig:mean 	0.27248293533921
scalar Network.dyn_peer[217] 	lookupHopsSig:mean 	20.75
scalar Network.dyn_peer[218] 	lookupTimeSig:mean 	1.4571428571429
scalar Network.dyn_peer[218] 	lookupStabilitySig:mean 	0.77268764216985
scalar Network.dyn_peer[218] 	lookupHopsSig:mean 	13.714285714286
scalar Network.dyn_peer[219] 	lookupTimeSig:mean 	1.6888888888889
scalar Network.dyn_peer[219] 	lookupStabilitySig:mean 	0.93774350375558
scalar Network.dyn_peer[219] 	lookupHopsSig:mean 	16
scalar Network.dyn_peer[220] 	lookupTimeSig:mean 	2.6
scalar Network.dyn_peer[220] 	lookupStabilitySig:mean 	0.69102562777698
scalar Network.dyn_peer[220] 	lookupHopsSig:mean 	25.5
scalar Network.dyn_peer[221] 	lookupTimeSig:mean 	1.35
scalar Network.dyn_peer[221] 	lookupStabilitySig:mean 	0.51208248610298
scalar Network.dyn_peer[221] 	lookupHopsSig:mean 	12.666666666667
scalar Network.dyn_peer[222] 	lookupTimeSig:mean 	1.4857142857143
scalar Network.dyn_peer[222] 	lookupStabilitySig:mean 	0.70052019293819
scalar Network.dyn_peer[222] 	lookupHopsSig:mean 	14
scalar Network.dyn_peer[223] 	lookupTimeSig:mean 	1.3
scalar Network.dyn_peer[223] 	lookupStabilitySig:mean 	0.37587858270854
scalar Network.dyn_peer[223] 	lookupHopsSig:mean 	12.25
scalar Network.dyn_peer[224] 	lookupTimeSig:mean 	2.1
scalar Network.dyn_peer[224] 	lookupStabilitySig:mean 	0.17666457593441
scalar Network.dyn_peer[224] 	lookupHopsSig:mean 	20.333333333333
scalar Network.dyn_peer[225] 	lookupTimeSig:mean 	1.8083333333333
scalar Network.dyn_peer[225] 	lookupStabilitySig:mean 	0.88093900020855
scalar Network.dyn_peer[225] 	lookupHopsSig:mean 	17.166666666667
scalar Network.dyn_peer[226] 	lookupTimeSig:mean 	1.1875
scalar Network.dyn_peer[226] 	lookupStabilitySig:mean 	0.65061756200157
scalar Network.dyn_peer[226] 	lookupHopsSig:mean 	11
scalar Network.dyn_peer[227] 	lookupTimeSig:mean 	1.3333333333333
scalar Network.dyn_peer[227] 	lookupStabilitySig:mean 	0.77984258912814
scalar Network.dyn_peer[227] 	lookupHopsSig:mean 	12.5
scalar Network.dyn_peer[228] 	lookupTimeSig:mean 	1.8666666666667
scalar Network.dyn_peer[228] 	lookupStabilitySig:mean 	0.86276332320025
scalar Network.dyn_peer[228] 	lookupHopsSig:mean 	17.833333333333
scalar Network.dyn_peer[229] 	lookupTimeSig:mean 	2.2857142857143
scalar Network.dyn_peer[229] 	lookupStabilitySig:mean 	0.91768190823495
scalar Network.dyn_peer[229] 	lookupHopsSig:mean 	22
scalar Network.dyn_peer[230] 	lookupTimeSig:mean 	1.5333333333333
scalar Network.dyn_peer[230] 	lookupStabilitySig:mean 	0.21296296268702
scalar Network.dyn_peer[230] 	lookupHopsSig:mean 	14.666666666667
scalar Network.dyn_peer[231] 	lookupTimeSig:mean 	1.9285714285714
scalar Network.dyn_peer[231] 	lookupStabilitySig:mean 	0.93765020490225
scalar Network.dyn_peer[231] 	lookupHopsSig:mean 	18.428571428571
scalar Network.dyn_peer[232] 	lookupTimeSig:mean 	2.4571428571429
scalar Network.dyn_peer[232] 	lookupStabilitySig:mean 	0.93854779470712
scalar Network.dyn_peer[232] 	lookupHopsSig:mean 	23.714285714286
scalar Network.dyn_peer[233] 	lookupTimeSig:mean 	1.8090909090909
scalar Network.dyn_peer[233] 	lookupStabilitySig:mean 	0.95463832213797
scalar Network.dyn_peer[233] 	lookupHopsSig:mean 	17.181818181818
scalar Network.dyn_peer[234] 	lookupTimeSig:mean 	1.4
scalar Network.dyn_peer[234] 	lookupStabilitySig:mean 	0.77023930013335
scalar Network.dyn_peer[234] 	lookupHopsSig:mean 	13.083333333333
scalar Network.dyn_peer[235] 	lookupTimeSig:mean 	2.4333333333333
scalar Network.dyn_peer[235] 	lookupStabilitySig:mean 	0.13898988068104
scalar Network.dyn_peer[235] 	lookupHopsSig:mean 	23.666666666667
scalar Network.dyn_peer[236] 	lookupTimeSig:mean 	2.1285714285714
scalar Network.dyn_peer[236] 	lookupStabilitySig:mean 	0.9219077071175
scalar Network.dyn_peer[236] 	lookupHopsSig:mean 	20.428571428571
scalar Network.dyn_peer[237] 	lookupTimeSig:mean 	1.4333333333333
scalar Network.dyn_peer[237] 	lookupStabilitySig:mean 	0.029305790861448
scalar Network.dyn_peer[237] 	lookupHopsSig:mean 	13.666666666667
scalar Network.dyn_peer[238] 	lookupTimeSig:mean 	1.7
scalar Network.dyn_peer[238] 	lookupStabilitySig:mean 	0.040211652716001
scalar Network.dyn_peer[238] 	lookupHopsSig:mean 	16.333333333333
scalar Network.dyn_peer[239] 	lookupTimeSig:mean 	1.5571428571429
scalar Network.dyn_peer[239] 	lookupStabilitySig:mean 	0.8020266611129
scalar Network.dyn_peer[239] 	lookupHopsSig:mean 	14.714285714286
scalar Network.dyn_peer[240] 	lookupTimeSig:mean 	1.8
scalar Network.dyn_peer[240] 	lookupStabilitySig:mean 	-0.26041665673256
scalar Network.dyn_peer[240] 	lookupHopsSig:mean 	17.5
scalar Network.dyn_peer[241] 	lookupTimeSig:mean 	2.4571428571429
scalar Network.dyn_peer[241] 	lookupStabilitySig:mean 	0.91094600302832
scalar Network.dyn_peer[241] 	lookupHopsSig:mean 	23.714285714286
scalar Network.dyn_peer[242] 	lookupTimeSig:mean 	1.7428571428571
scalar Network.dyn_peer[242] 	lookupStabilitySig:mean 	0.59776930032032
scalar Network.dyn_peer[242] 	lookupHopsSig:mean 	16.571428571429
scalar Network.dyn_peer[243] 	lookupTimeSig:mean 	1.6444444444444
scalar Network.dyn_peer[243] 	lookupStabilitySig:mean 	0.89063659713914
scalar Network.dyn_peer[243] 	lookupHopsSig:mean 	15.555555555556
scalar Network.dyn_peer[244] 	lookupTimeSig:mean 	1.9666666666667
scalar Network.dyn_peer[244] 	lookupStabilitySig:mean 	0.38409961760044
scalar Network.dyn_peer[244] 	lookupHopsSig:mean 	19
scalar Network.dyn_peer[245] 	lookupTimeSig:mean 	2.4666666666667
scalar Network.dyn_peer[245] 	lookupStabilitySig:mean 	0.56881481533249
scalar Network.dyn_peer[245] 	lookupHopsSig:mean 	24
scalar Network.dyn_peer[246] 	lookupTimeSig:mean 	3.04
scalar Network.dyn_peer[246] 	lookupStabilitySig:mean 	0.91231805048883
scalar Network.dyn_peer[246] 	lookupHopsSig:mean 	29.6
scalar Network.dyn_peer[247] 	lookupTimeSig:mean 	2.84
scalar Network.dyn_peer[247] 	lookupStabilitySig:mean 	0.59614221267402
scalar Network.dyn_peer[247] 	lookupHopsSig:mean 	27.6
scalar Network.dyn_peer[248] 	lookupTimeSig:mean 	3.5166666666667
scalar Network.dyn_peer[248] 	lookupStabilitySig:mean 	0.90363103197888
scalar Network.dyn_peer[248] 	lookupHopsSig:mean 	34.333333333333
scalar Network.dyn_peer[249] 	lookupTimeSig:mean 	2.0285714285714
scalar Network.dyn_peer[249] 	lookupStabilitySig:mean 	0.85582787570144
scalar Network.dyn_peer[249] 	lookupHopsSig:mean 	19.428571428571
scalar Network.dyn_peer[250] 	lookupTimeSig:mean 	1.96
scalar Network.dyn_peer[250] 	lookupStabilitySig:mean 	0.62405994646251
scalar Network.dyn_peer[250] 	lookupHopsSig:mean 	18.8
scalar Network.dyn_peer[251] 	lookupTimeSig:mean 	1.4
scalar Network.dyn_peer[251] 	lookupStabilitySig:mean 	0.82213562036244
scalar Network.dyn_peer[251] 	lookupHopsSig:mean 	13.083333333333
scalar Network.dyn_peer[252] 	lookupTimeSig:mean 	1.95
scalar Network.dyn_peer[252] 	lookupStabilitySig:mean 	0.91611844068393
scalar Network.dyn_peer[252] 	lookupHopsSig:mean 	18.625
scalar Network.dyn_peer[253] 	lookupTimeSig:mean 	1.3444444444444
scalar Network.dyn_peer[253] 	lookupStabilitySig:mean 	0.92416120755176
scalar Network.dyn_peer[253] 	lookupHopsSig:mean 	12.555555555556
scalar Network.dyn_peer[254] 	lookupTimeSig:mean 	1.45
scalar Network.dyn_peer[254] 	lookupStabilitySig:mean 	0.64332711137831
scalar Network.dyn_peer[254] 	lookupHopsSig:mean 	13.666666666667
scalar Network.dyn_peer[255] 	lookupTimeSig:mean 	2
scalar Network.dyn_peer[255] 	lookupStabilitySig:mean 	0.42445277869701
scalar Network.dyn_peer[255] 	lookupHopsSig:mean 	19.2
scalar Network.dyn_peer[256] 	lookupTimeSig:mean 	1.725
scalar Network.dyn_peer[256] 	lookupStabilitySig:mean 	0.74219388049096
scalar Network.dyn_peer[256] 	lookupHopsSig:mean 	16.5
scalar Network.dyn_peer[257] 	lookupTimeSig:mean 	1.8142857142857
scalar Network.dyn_peer[257] 	lookupStabilitySig:mean 	0.74300194085975
scalar Network.dyn_peer[257] 	lookupHopsSig:mean 	17.285714285714
scalar Network.dyn_peer[258] 	lookupTimeSig:mean 	2.1333333333333
scalar Network.dyn_peer[258] 	lookupStabilitySig:mean 	0.56122064311057
scalar Network.dyn_peer[258] 	lookupHopsSig:mean 	20.5
scalar Network.dyn_peer[259] 	lookupTimeSig:mean 	1.9285714285714
scalar Network.dyn_peer[259] 	lookupStabilitySig:mean 	0.74587440756815
scalar Network.dyn_peer[259] 	lookupHopsSig:mean 	18.428571428571
scalar Network.dyn_peer[260] 	lookupTimeSig:mean 	2.0666666666667
scalar Network.dyn_peer[260] 	lookupStabilitySig:mean 	0.89964824356139
scalar Network.dyn_peer[260] 	lookupHopsSig:mean 	19.777777777778
scalar Network.dyn_peer[261] 	lookupTimeSig:mean 	1.6166666666667
scalar Network.dyn_peer[261] 	lookupStabilitySig:mean 	0.43529059924185
scalar Network.dyn_peer[261] 	lookupHopsSig:mean 	15.333333333333
scalar Network.dyn_peer[262] 	lookupTimeSig:mean 	2.175
scalar Network.dyn_peer[262] 	lookupStabilitySig:mean 	0.84271987900138
scalar Network.dyn_peer[262] 	lookupHopsSig:mean 	21
scalar Network.dyn_peer[263] 	lookupTimeSig:mean 	1.7888888888889
scalar Network.dyn_peer[263] 	lookupStabilitySig:mean 	0.93876620833503
scalar Network.dyn_peer[263] 	lookupHopsSig:mean 	17
scalar Network.dyn_peer[264] 	lookupTimeSig:mean 	1.8857142857143
scalar Network.dyn_peer[264] 	lookupStabilitySig:mean 	0.88584768319769
scalar Network.dyn_peer[264] 	lookupHopsSig:mean 	18
scalar Network.dyn_peer[265] 	lookupTimeSig:mean 	1.0428571428571
scalar Network.dyn_peer[265] 	lookupStabilitySig:mean 	0.53857053869537
scalar Network.dyn_peer[265] 	lookupHopsSig:mean 	9.5714285714286
scalar Network.dyn_peer[266] 	lookupTimeSig:mean 	1.7333333333333
scalar Network.dyn_peer[266] 	lookupStabilitySig:mean 	0.67550839732091
scalar Network.dyn_peer[266] 	lookupHopsSig:mean 	16.5
scalar Network.dyn_peer[267] 	lookupTimeSig:mean 	1.58
scalar Network.dyn_peer[267] 	lookupStabilitySig:mean 	0.7881237462163
scalar Network.dyn_peer[267] 	lookupHopsSig:mean 	15
scalar Network.dyn_peer[268] 	lookupTimeSig:mean 	3.44
scalar Network.dyn_peer[268] 	lookupStabilitySig:mean 	0.70872980095446
scalar Network.dyn_peer[268] 	lookupHopsSig:mean 	33.6
scalar Network.dyn_peer[269] 	lookupTimeSig:mean 	2.125
scalar Network.dyn_peer[269] 	lookupStabilitySig:mean 	0.25684048514813
scalar Network.dyn_peer[269] 	lookupHopsSig:mean 	20.5
scalar Network.dyn_peer[270] 	lookupTimeSig:mean 	1.825
scalar Network.dyn_peer[270] 	lookupStabilitySig:mean 	0.94688971542443
scalar Network.dyn_peer[270] 	lookupHopsSig:mean 	17.333333333333
scalar Network.dyn_peer[271] 	lookupTimeSig:mean 	1.9333333333333
scalar Network.dyn_peer[271] 	lookupStabilitySig:mean 	0.44559732452035
scalar Network.dyn_peer[271] 	lookupHopsSig:mean 	18.5
scalar Network.dyn_peer[272] 	lookupTimeSig:mean 	1.74
scalar Network.dyn_peer[272] 	lookupStabilitySig:mean 	0.92289705500007
scalar Network.dyn_peer[272] 	lookupHopsSig:mean 	16.5
scalar Network.dyn_peer[273] 	lookupTimeSig:mean 	6.3
scalar Network.dyn_peer[273] 	lookupStabilitySig:mean 	-0.10213144123554
scalar Network.dyn_peer[273] 	lookupHopsSig:mean 	62.5
scalar Network.dyn_peer[274] 	lookupTimeSig:mean 	2.1833333333333
scalar Network.dyn_peer[274] 	lookupStabilitySig:mean 	0.66589544837674
scalar Network.dyn_peer[274] 	lookupHopsSig:mean 	21
scalar Network.dyn_peer[275] 	lookupTimeSig:mean 	3.1
scalar Network.dyn_peer[275] 	lookupStabilitySig:mean 	0.60119369998574
scalar Network.dyn_peer[275] 	lookupHopsSig:mean 	30.5
scalar Network.dyn_peer[276] 	lookupTimeSig:mean 	1.2333333333333
scalar Network.dyn_peer[276] 	lookupStabilitySig:mean 	0.77232536444596
scalar Network.dyn_peer[276] 	lookupHopsSig:mean 	11.416666666667
scalar Network.dyn_peer[277] 	lookupTimeSig:mean 	1.45
scalar Network.dyn_peer[277] 	lookupStabilitySig:mean 	0.27855994459242
scalar Network.dyn_peer[277] 	lookupHopsSig:mean 	13.75
scalar Network.dyn_peer[278] 	lookupTimeSig:mean 	2.36
scalar Network.dyn_peer[278] 	lookupStabilitySig:mean 	0.84642358236015
scalar Network.dyn_peer[278] 	lookupHopsSig:mean 	22.8
scalar Network.dyn_peer[279] 	lookupTimeSig:mean 	1.6333333333333
scalar Network.dyn_peer[279] 	lookupStabilitySig:mean 	0.62504128118356
scalar Network.dyn_peer[279] 	lookupHopsSig:mean 	15.666666666667
scalar Network.dyn_peer[280] 	lookupTimeSig:mean 	2.5777777777778
scalar Network.dyn_peer[280] 	lookupStabilitySig:mean 	0.70728363407155
scalar Network.dyn_peer[280] 	lookupHopsSig:mean 	24.888888888889
scalar Network.dyn_peer[281] 	lookupTimeSig:mean 	2.2
scalar Network.dyn_peer[281] 	lookupStabilitySig:mean 	0.68059545382857
scalar Network.dyn_peer[281] 	lookupHopsSig:mean 	21.333333333333
scalar Network.dyn_peer[282] 	lookupTimeSig:mean 	1.8363636363636
scalar Network.dyn_peer[282] 	lookupStabilitySig:mean 	0.92025984133678
scalar Network.dyn_peer[282] 	lookupHopsSig:mean 	17.454545454545
scalar Network.dyn_peer[283] 	lookupTimeSig:mean 	2.1166666666667
scalar Network.dyn_peer[283] 	lookupStabilitySig:mean 	0.72820668357114
scalar Network.dyn_peer[283] 	lookupHopsSig:mean 	20.333333333333
scalar Network.dyn_peer[284] 	lookupTimeSig:mean 	1.6375
scalar Network.dyn_peer[284] 	lookupStabilitySig:mean 	0.87376825147658
scalar Network.dyn_peer[284] 	lookupHopsSig:mean 	15.5
scalar Network.dyn_peer[285] 	lookupTimeSig:mean 	2.7142857142857
scalar Network.dyn_peer[285] 	lookupStabilitySig:mean 	0.9139984834141
scalar Network.dyn_peer[285] 	lookupHopsSig:mean 	26.285714285714
scalar Network.dyn_peer[286] 	lookupTimeSig:mean 	1.5444444444444
scalar Network.dyn_peer[286] 	lookupStabilitySig:mean 	0.83708890258438
scalar Network.dyn_peer[286] 	lookupHopsSig:mean 	14.555555555556
scalar Network.dyn_peer[287] 	lookupTimeSig:mean 	1.8444444444444
scalar Network.dyn_peer[287] 	lookupStabilitySig:mean 	0.64274059784495
scalar Network.dyn_peer[287] 	lookupHopsSig:mean 	17.555555555556
scalar Network.dyn_peer[288] 	lookupTimeSig:mean 	1.7583333333333
scalar Network.dyn_peer[288] 	lookupStabilitySig:mean 	0.75495195016265
scalar Network.dyn_peer[288] 	lookupHopsSig:mean 	16.666666666667
scalar Network.dyn_peer[289] 	lookupTimeSig:mean 	1.5076923076923
scalar Network.dyn_peer[289] 	lookupStabilitySig:mean 	0.96669342291828
scalar Network.dyn_peer[289] 	lookupHopsSig:mean 	14.153846153846
scalar Network.dyn_peer[290] 	lookupTimeSig:mean 	2.5
scalar Network.dyn_peer[290] 	lookupStabilitySig:mean 	0.82713675374786
scalar Network.dyn_peer[290] 	lookupHopsSig:mean 	24.333333333333
scalar Network.dyn_peer[291] 	lookupTimeSig:mean 	2.2714285714286
scalar Network.dyn_peer[291] 	lookupStabilitySig:mean 	0.8479367566428
scalar Network.dyn_peer[291] 	lookupHopsSig:mean 	21.857142857143
scalar Network.dyn_peer[292] 	lookupTimeSig:mean 	2.18
scalar Network.dyn_peer[292] 	lookupStabilitySig:mean 	0.86398157775402
scalar Network.dyn_peer[292] 	lookupHopsSig:mean 	21
scalar Network.dyn_peer[293] 	lookupTimeSig:mean 	2.42
scalar Network.dyn_peer[293] 	lookupStabilitySig:mean 	0.87022536918521
scalar Network.dyn_peer[293] 	lookupHopsSig:mean 	23.4
scalar Network.dyn_peer[294] 	lookupTimeSig:mean 	1.8333333333333
scalar Network.dyn_peer[294] 	lookupStabilitySig:mean 	0.85295364250325
scalar Network.dyn_peer[294] 	lookupHopsSig:mean 	17.444444444444
scalar Network.dyn_peer[295] 	lookupTimeSig:mean 	2.125
scalar Network.dyn_peer[295] 	lookupStabilitySig:mean 	0.41830895468593
scalar Network.dyn_peer[295] 	lookupHopsSig:mean 	20.5
scalar Network.dyn_peer[296] 	lookupTimeSig:mean 	2.4
scalar Network.dyn_peer[296] 	lookupStabilitySig:mean 	0.8780000988394
scalar Network.dyn_peer[296] 	lookupHopsSig:mean 	23.2
scalar Network.dyn_peer[297] 	lookupTimeSig:mean 	2.0857142857143
scalar Network.dyn_peer[297] 	lookupStabilitySig:mean 	0.76221743186138
scalar Network.dyn_peer[297] 	lookupHopsSig:mean 	20
scalar Network.dyn_peer[298] 	lookupTimeSig:mean 	2.3666666666667
scalar Network.dyn_peer[298] 	lookupStabilitySig:mean 	0.61408894260724
scalar Network.dyn_peer[298] 	lookupHopsSig:mean 	23
scalar Network.dyn_peer[299] 	lookupTimeSig:mean 	2.275
scalar Network.dyn_peer[299] 	lookupStabilitySig:mean 	0.1874980814755
scalar Network.dyn_peer[299] 	lookupHopsSig:mean 	22
scalar Network.dyn_peer[300] 	lookupTimeSig:mean 	1.6666666666667
scalar Network.dyn_peer[300] 	lookupStabilitySig:mean 	0.76265315338969
scalar Network.dyn_peer[300] 	lookupHopsSig:mean 	15.833333333333
scalar Network.dyn_peer[301] 	lookupTimeSig:mean 	3.3333333333333
scalar Network.dyn_peer[301] 	lookupStabilitySig:mean 	0.25784315168858
scalar Network.dyn_peer[301] 	lookupHopsSig:mean 	32.666666666667
scalar Network.dyn_peer[302] 	lookupTimeSig:mean 	2.5
scalar Network.dyn_peer[302] 	lookupStabilitySig:mean 	0.62247080355883
scalar Network.dyn_peer[302] 	lookupHopsSig:mean 	24.5
scalar Network.dyn_peer[303] 	lookupTimeSig:mean 	3.3333333333333
scalar Network.dyn_peer[303] 	lookupStabilitySig:mean 	0.89271328086033
scalar Network.dyn_peer[303] 	lookupHopsSig:mean 	32.666666666667
scalar Network.dyn_peer[304] 	lookupTimeSig:mean 	1.25
scalar Network.dyn_peer[304] 	lookupStabilitySig:mean 	0.67248149956577
scalar Network.dyn_peer[304] 	lookupHopsSig:mean 	11.6
scalar Network.dyn_peer[305] 	lookupTimeSig:mean 	1.8
scalar Network.dyn_peer[305] 	lookupStabilitySig:mean 	0.64797196909785
scalar Network.dyn_peer[305] 	lookupHopsSig:mean 	17.333333333333
scalar Network.dyn_peer[306] 	lookupTimeSig:mean 	1.45
scalar Network.dyn_peer[306] 	lookupStabilitySig:mean 	0.42931920289993
scalar Network.dyn_peer[306] 	lookupHopsSig:mean 	13.75
scalar Network.dyn_peer[307] 	lookupTimeSig:mean 	2.56
scalar Network.dyn_peer[307] 	lookupStabilitySig:mean 	0.86679613143206
scalar Network.dyn_peer[307] 	lookupHopsSig:mean 	24.8
scalar Network.dyn_peer[308] 	lookupTimeSig:mean 	1.5333333333333
scalar Network.dyn_peer[308] 	lookupStabilitySig:mean 	0.48596414302786
scalar Network.dyn_peer[308] 	lookupHopsSig:mean 	14.5
scalar Network.dyn_peer[309] 	lookupTimeSig:mean 	1.34
scalar Network.dyn_peer[309] 	lookupStabilitySig:mean 	0.41624967828393
scalar Network.dyn_peer[309] 	lookupHopsSig:mean 	12.6
scalar Network.dyn_peer[310] 	lookupTimeSig:mean 	1.55
scalar Network.dyn_peer[310] 	lookupStabilitySig:mean 	-0.17931035161018
scalar Network.dyn_peer[310] 	lookupHopsSig:mean 	15
scalar Network.dyn_peer[311] 	lookupTimeSig:mean 	1.9571428571429
scalar Network.dyn_peer[311] 	lookupStabilitySig:mean 	0.91896762313055
scalar Network.dyn_peer[311] 	lookupHopsSig:mean 	18.714285714286
scalar Network.dyn_peer[312] 	lookupTimeSig:mean 	4.15
scalar Network.dyn_peer[312] 	lookupStabilitySig:mean 	0.86239827983081
scalar Network.dyn_peer[312] 	lookupHopsSig:mean 	40.75
scalar Network.dyn_peer[313] 	lookupTimeSig:mean 	3.11
scalar Network.dyn_peer[313] 	lookupStabilitySig:mean 	0.89939044695348
scalar Network.dyn_peer[313] 	lookupHopsSig:mean 	30.2
scalar Network.dyn_peer[314] 	lookupTimeSig:mean 	1.75
scalar Network.dyn_peer[314] 	lookupStabilitySig:mean 	0.80898989131674
scalar Network.dyn_peer[314] 	lookupHopsSig:mean 	16.666666666667
scalar Network.dyn_peer[315] 	lookupTimeSig:mean 	0.9
scalar Network.dyn_peer[315] 	lookupStabilitySig:mean 	0.52464069090784
scalar Network.dyn_peer[315] 	lookupHopsSig:mean 	8.2
scalar Network.dyn_peer[316] 	lookupTimeSig:mean 	1.2363636363636
scalar Network.dyn_peer[316] 	lookupStabilitySig:mean 	0.91192490154539
scalar Network.dyn_peer[316] 	lookupHopsSig:mean 	11.454545454545
scalar Network.dyn_peer[317] 	lookupTimeSig:mean 	1.5769230769231
scalar Network.dyn_peer[317] 	lookupStabilitySig:mean 	0.91543125536723
scalar Network.dyn_peer[317] 	lookupHopsSig:mean 	14.846153846154
scalar Network.dyn_peer[318] 	lookupTimeSig:mean 	1.3583333333333
scalar Network.dyn_peer[318] 	lookupStabilitySig:mean 	0.78046150016598
scalar Network.dyn_peer[318] 	lookupHopsSig:mean 	12.666666666667
scalar Network.dyn_peer[319] 	lookupTimeSig:mean 	1.4125
scalar Network.dyn_peer[319] 	lookupStabilitySig:mean 	0.78455320815556
scalar Network.dyn_peer[319] 	lookupHopsSig:mean 	13.25
scalar Network.dyn_peer[320] 	lookupTimeSig:mean 	2.1111111111111
scalar Network.dyn_peer[320] 	lookupStabilitySig:mean 	0.94121932522911
scalar Network.dyn_peer[320] 	lookupHopsSig:mean 	20.222222222222
scalar Network.dyn_peer[321] 	lookupTimeSig:mean 	2.4
scalar Network.dyn_peer[321] 	lookupStabilitySig:mean 	0.066308269898097
scalar Network.dyn_peer[321] 	lookupHopsSig:mean 	23.333333333333
scalar Network.dyn_peer[322] 	lookupTimeSig:mean 	1.5428571428571
scalar Network.dyn_peer[322] 	lookupStabilitySig:mean 	0.92428570227431
scalar Network.dyn_peer[322] 	lookupHopsSig:mean 	14.571428571429
scalar Network.dyn_peer[323] 	lookupTimeSig:mean 	2.4
scalar Network.dyn_peer[323] 	lookupStabilitySig:mean 	-0.014541178941727
scalar Network.dyn_peer[323] 	lookupHopsSig:mean 	23.333333333333
scalar Network.dyn_peer[324] 	lookupTimeSig:mean 	3.3333333333333
scalar Network.dyn_peer[324] 	lookupStabilitySig:mean 	0.11641351878643
scalar Network.dyn_peer[324] 	lookupHopsSig:mean 	32.666666666667
scalar Network.dyn_peer[325] 	lookupTimeSig:mean 	1.425
scalar Network.dyn_peer[325] 	lookupStabilitySig:mean 	0.35413174796849
scalar Network.dyn_peer[325] 	lookupHopsSig:mean 	13.5
scalar Network.dyn_peer[326] 	lookupTimeSig:mean 	1.7090909090909
scalar Network.dyn_peer[326] 	lookupStabilitySig:mean 	0.87672731661322
scalar Network.dyn_peer[326] 	lookupHopsSig:mean 	16.181818181818
scalar Network.dyn_peer[327] 	lookupTimeSig:mean 	1.6
scalar Network.dyn_peer[327] 	lookupStabilitySig:mean 	0.80241479766038
scalar Network.dyn_peer[327] 	lookupHopsSig:mean 	15.111111111111
scalar Network.dyn_peer[328] 	lookupTimeSig:mean 	3.3
scalar Network.dyn_peer[328] 	lookupStabilitySig:mean 	0.77490750451883
scalar Network.dyn_peer[328] 	lookupHopsSig:mean 	32.333333333333
scalar Network.dyn_peer[329] 	lookupTimeSig:mean 	2.0181818181818
scalar Network.dyn_peer[329] 	lookupStabilitySig:mean 	0.94018919439986
scalar Network.dyn_peer[329] 	lookupHopsSig:mean 	19.272727272727
scalar Network.dyn_peer[330] 	lookupTimeSig:mean 	1.9428571428571
scalar Network.dyn_peer[330] 	lookupStabilitySig:mean 	0.89476764408339
scalar Network.dyn_peer[330] 	lookupHopsSig:mean 	18.571428571429
scalar Network.dyn_peer[331] 	lookupTimeSig:mean 	1.5125
scalar Network.dyn_peer[331] 	lookupStabilitySig:mean 	0.75114006840158
scalar Network.dyn_peer[331] 	lookupHopsSig:mean 	14.25
scalar Network.dyn_peer[332] 	lookupTimeSig:mean 	1.4230769230769
scalar Network.dyn_peer[332] 	lookupStabilitySig:mean 	0.90341152722697
scalar Network.dyn_peer[332] 	lookupHopsSig:mean 	13.307692307692
scalar Network.dyn_peer[333] 	lookupTimeSig:mean 	2.2571428571429
scalar Network.dyn_peer[333] 	lookupStabilitySig:mean 	0.89216905752463
scalar Network.dyn_peer[333] 	lookupHopsSig:mean 	21.714285714286
scalar Network.dyn_peer[334] 	lookupTimeSig:mean 	2.52
scalar Network.dyn_peer[334] 	lookupStabilitySig:mean 	0.82867793552577
scalar Network.dyn_peer[334] 	lookupHopsSig:mean 	24.4
scalar Network.dyn_peer[335] 	lookupTimeSig:mean 	2
scalar Network.dyn_peer[335] 	lookupStabilitySig:mean 	0.70420483872294
scalar Network.dyn_peer[335] 	lookupHopsSig:mean 	19.25
scalar Network.dyn_peer[336] 	lookupTimeSig:mean 	1.97
scalar Network.dyn_peer[336] 	lookupStabilitySig:mean 	0.72365600238554
scalar Network.dyn_peer[336] 	lookupHopsSig:mean 	18.8
scalar Network.dyn_peer[337] 	lookupTimeSig:mean 	2.3
scalar Network.dyn_peer[337] 	lookupStabilitySig:mean 	0.073495827615261
scalar Network.dyn_peer[337] 	lookupHopsSig:mean 	22.5
scalar Network.dyn_peer[338] 	lookupTimeSig:mean 	2.4
scalar Network.dyn_peer[338] 	lookupStabilitySig:mean 	0.93239535843687
scalar Network.dyn_peer[338] 	lookupHopsSig:mean 	23.142857142857
scalar Network.dyn_peer[339] 	lookupTimeSig:mean 	2.3
scalar Network.dyn_peer[339] 	lookupStabilitySig:mean 	0.82470196783543
scalar Network.dyn_peer[339] 	lookupHopsSig:mean 	22.2
scalar Network.dyn_peer[340] 	lookupTimeSig:mean 	2.2333333333333
scalar Network.dyn_peer[340] 	lookupStabilitySig:mean 	0.43450062473615
scalar Network.dyn_peer[340] 	lookupHopsSig:mean 	21.666666666667
scalar Network.dyn_peer[341] 	lookupTimeSig:mean 	1.78
scalar Network.dyn_peer[341] 	lookupStabilitySig:mean 	0.87862923615612
scalar Network.dyn_peer[341] 	lookupHopsSig:mean 	17
scalar Network.dyn_peer[342] 	lookupTimeSig:mean 	3.6
scalar Network.dyn_peer[342] 	lookupStabilitySig:mean 	0.13131315633655
scalar Network.dyn_peer[342] 	lookupHopsSig:mean 	35.333333333333
scalar Network.dyn_peer[343] 	lookupTimeSig:mean 	1.7333333333333
scalar Network.dyn_peer[343] 	lookupStabilitySig:mean 	0.96553172855638
scalar Network.dyn_peer[343] 	lookupHopsSig:mean 	16.4
scalar Network.dyn_peer[344] 	lookupTimeSig:mean 	2.2142857142857
scalar Network.dyn_peer[344] 	lookupStabilitySig:mean 	0.93661713254239
scalar Network.dyn_peer[344] 	lookupHopsSig:mean 	21.285714285714
scalar Network.dyn_peer[345] 	lookupTimeSig:mean 	1.8
scalar Network.dyn_peer[345] 	lookupStabilitySig:mean 	0.58963394111821
scalar Network.dyn_peer[345] 	lookupHopsSig:mean 	17.142857142857
scalar Network.dyn_peer[346] 	lookupTimeSig:mean 	0.7
scalar Network.dyn_peer[346] 	lookupStabilitySig:mean 	0.59476380608976
scalar Network.dyn_peer[346] 	lookupHopsSig:mean 	6.25
scalar Network.dyn_peer[347] 	lookupTimeSig:mean 	1.3666666666667
scalar Network.dyn_peer[347] 	lookupStabilitySig:mean 	0.85352748973916
scalar Network.dyn_peer[347] 	lookupHopsSig:mean 	12.833333333333
scalar Network.dyn_peer[348] 	lookupTimeSig:mean 	1.45
scalar Network.dyn_peer[348] 	lookupStabilitySig:mean 	0.78552181779274
scalar Network.dyn_peer[348] 	lookupHopsSig:mean 	13.571428571429
scalar Network.dyn_peer[349] 	lookupTimeSig:mean 	1.625
scalar Network.dyn_peer[349] 	lookupStabilitySig:mean 	0.24981192778796
scalar Network.dyn_peer[349] 	lookupHopsSig:mean 	15.5
scalar Network.dyn_peer[350] 	lookupTimeSig:mean 	2.42
scalar Network.dyn_peer[350] 	lookupStabilitySig:mean 	0.8876949608326
scalar Network.dyn_peer[350] 	lookupHopsSig:mean 	23.4
scalar Network.dyn_peer[351] 	lookupTimeSig:mean 	1.18
scalar Network.dyn_peer[351] 	lookupStabilitySig:mean 	0.80846676812507
scalar Network.dyn_peer[351] 	lookupHopsSig:mean 	10.9
scalar Network.dyn_peer[352] 	lookupTimeSig:mean 	2.1333333333333
scalar Network.dyn_peer[352] 	lookupStabilitySig:mean 	0.4338404883941
scalar Network.dyn_peer[352] 	lookupHopsSig:mean 	20.666666666667
scalar Network.dyn_peer[353] 	lookupTimeSig:mean 	1.6666666666667
scalar Network.dyn_peer[353] 	lookupStabilitySig:mean 	0.8147318560837
scalar Network.dyn_peer[353] 	lookupHopsSig:mean 	15.777777777778
scalar Network.dyn_peer[354] 	lookupTimeSig:mean 	1.88
scalar Network.dyn_peer[354] 	lookupStabilitySig:mean 	0.58942585997283
scalar Network.dyn_peer[354] 	lookupHopsSig:mean 	18
scalar Network.dyn_peer[355] 	lookupTimeSig:mean 	2
scalar Network.dyn_peer[355] 	lookupStabilitySig:mean 	0.81233803715025
scalar Network.dyn_peer[355] 	lookupHopsSig:mean 	19.142857142857
scalar Network.dyn_peer[356] 	lookupTimeSig:mean 	2.0666666666667
scalar Network.dyn_peer[356] 	lookupStabilitySig:mean 	0.27526758114497
scalar Network.dyn_peer[356] 	lookupHopsSig:mean 	20
scalar Network.dyn_peer[357] 	lookupTimeSig:mean 	2.5
scalar Network.dyn_peer[357] 	lookupStabilitySig:mean 	0.60772963582228
scalar Network.dyn_peer[357] 	lookupHopsSig:mean 	24.166666666667
scalar Network.dyn_peer[358] 	lookupTimeSig:mean 	1.7833333333333
scalar Network.dyn_peer[358] 	lookupStabilitySig:mean 	0.66589785460383
scalar Network.dyn_peer[358] 	lookupHopsSig:mean 	17
scalar Network.dyn_peer[359] 	lookupTimeSig:mean 	2.2666666666667
scalar Network.dyn_peer[359] 	lookupStabilitySig:mean 	0.91499889502302
scalar Network.dyn_peer[359] 	lookupHopsSig:mean 	21.833333333333
scalar Network.dyn_peer[360] 	lookupTimeSig:mean 	2.21
scalar Network.dyn_peer[360] 	lookupStabilitySig:mean 	0.94051350336522
scalar Network.dyn_peer[360] 	lookupHopsSig:mean 	21.2
scalar Network.dyn_peer[361] 	lookupTimeSig:mean 	2.1
scalar Network.dyn_peer[361] 	lookupStabilitySig:mean 	0.76058785604047
scalar Network.dyn_peer[361] 	lookupHopsSig:mean 	20.142857142857
scalar Network.dyn_peer[362] 	lookupTimeSig:mean 	2.125
scalar Network.dyn_peer[362] 	lookupStabilitySig:mean 	0.74452631827444
scalar Network.dyn_peer[362] 	lookupHopsSig:mean 	20.5
scalar Network.dyn_peer[363] 	lookupTimeSig:mean 	2.725
scalar Network.dyn_peer[363] 	lookupStabilitySig:mean 	0.60724888462573
scalar Network.dyn_peer[363] 	lookupHopsSig:mean 	26.5
scalar Network.dyn_peer[364] 	lookupTimeSig:mean 	1.3
scalar Network.dyn_peer[364] 	lookupStabilitySig:mean 	0.66810179054737
scalar Network.dyn_peer[364] 	lookupHopsSig:mean 	12.2
scalar Network.dyn_peer[365] 	lookupTimeSig:mean 	1.8666666666667
scalar Network.dyn_peer[365] 	lookupStabilitySig:mean 	0.55405074730515
scalar Network.dyn_peer[365] 	lookupHopsSig:mean 	17.833333333333
scalar Network.dyn_peer[366] 	lookupTimeSig:mean 	2.9833333333333
scalar Network.dyn_peer[366] 	lookupStabilitySig:mean 	0.89815038877229
scalar Network.dyn_peer[366] 	lookupHopsSig:mean 	29
scalar Network.dyn_peer[367] 	lookupTimeSig:mean 	4.2
scalar Network.dyn_peer[367] 	lookupStabilitySig:mean 	0.17859426140785
scalar Network.dyn_peer[367] 	lookupHopsSig:mean 	41.5
scalar Network.dyn_peer[368] 	lookupTimeSig:mean 	2.2333333333333
scalar Network.dyn_peer[368] 	lookupStabilitySig:mean 	0.79365275303523
scalar Network.dyn_peer[368] 	lookupHopsSig:mean 	21.666666666667
scalar Network.dyn_peer[369] 	lookupTimeSig:mean 	2.92
scalar Network.dyn_peer[369] 	lookupStabilitySig:mean 	0.88044779486954
scalar Network.dyn_peer[369] 	lookupHopsSig:mean 	28.4
scalar Network.dyn_peer[370] 	lookupTimeSig:mean 	2.575
scalar Network.dyn_peer[370] 	lookupStabilitySig:mean 	0.71940270857885
scalar Network.dyn_peer[370] 	lookupHopsSig:mean 	24.875
scalar Network.dyn_peer[371] 	lookupTimeSig:mean 	2.0333333333333
scalar Network.dyn_peer[371] 	lookupStabilitySig:mean 	0.94858990543677
scalar Network.dyn_peer[371] 	lookupHopsSig:mean 	19.444444444444
scalar Network.dyn_peer[372] 	lookupTimeSig:mean 	1.3
scalar Network.dyn_peer[372] 	lookupStabilitySig:mean 	0.56692946252103
scalar Network.dyn_peer[372] 	lookupHopsSig:mean 	12.166666666667
scalar Network.dyn_peer[373] 	lookupTimeSig:mean 	1.8
scalar Network.dyn_peer[373] 	lookupStabilitySig:mean 	0.72860784679651
scalar Network.dyn_peer[373] 	lookupHopsSig:mean 	17.2
scalar Network.dyn_peer[374] 	lookupTimeSig:mean 	2.65
scalar Network.dyn_peer[374] 	lookupStabilitySig:mean 	0.93760004919022
scalar Network.dyn_peer[374] 	lookupHopsSig:mean 	25.625
scalar Network.dyn_peer[375] 	lookupTimeSig:mean 	1.6
scalar Network.dyn_peer[375] 	lookupStabilitySig:mean 	0.27251460154851
scalar Network.dyn_peer[375] 	lookupHopsSig:mean 	15.333333333333
scalar Network.dyn_peer[376] 	lookupTimeSig:mean 	1.9866666666667
scalar Network.dyn_peer[376] 	lookupStabilitySig:mean 	0.9672370572264
scalar Network.dyn_peer[376] 	lookupHopsSig:mean 	18.933333333333
scalar Network.dyn_peer[377] 	lookupTimeSig:mean 	1.84
scalar Network.dyn_peer[377] 	lookupStabilitySig:mean 	0.61935663893819
scalar Network.dyn_peer[377] 	lookupHopsSig:mean 	17.6
scalar Network.dyn_peer[378] 	lookupTimeSig:mean 	2.2
scalar Network.dyn_peer[378] 	lookupStabilitySig:mean 	0.73628115902344
scalar Network.dyn_peer[378] 	lookupHopsSig:mean 	21.166666666667
scalar Network.dyn_peer[379] 	lookupTimeSig:mean 	4.0666666666667
scalar Network.dyn_peer[379] 	lookupStabilitySig:mean 	0.19821317493916
scalar Network.dyn_peer[379] 	lookupHopsSig:mean 	40
scalar Network.dyn_peer[380] 	lookupTimeSig:mean 	2.1571428571429
scalar Network.dyn_peer[380] 	lookupStabilitySig:mean 	0.79253011010587
scalar Network.dyn_peer[380] 	lookupHopsSig:mean 	20.714285714286
scalar Network.dyn_peer[381] 	lookupTimeSig:mean 	3
scalar Network.dyn_peer[381] 	lookupStabilitySig:mean 	-0.125
scalar Network.dyn_peer[381] 	lookupHopsSig:mean 	29.5
scalar Network.dyn_peer[382] 	lookupTimeSig:mean 	1.95
scalar Network.dyn_peer[382] 	lookupStabilitySig:mean 	0.92465262988117
scalar Network.dyn_peer[382] 	lookupHopsSig:mean 	18.625
scalar Network.dyn_peer[383] 	lookupTimeSig:mean 	1.5
scalar Network.dyn_peer[383] 	lookupStabilitySig:mean 	0.54148393124342
scalar Network.dyn_peer[383] 	lookupHopsSig:mean 	14.333333333333
scalar Network.dyn_peer[384] 	lookupTimeSig:mean 	2.2454545454545
scalar Network.dyn_peer[384] 	lookupStabilitySig:mean 	0.95028808488595
scalar Network.dyn_peer[384] 	lookupHopsSig:mean 	21.545454545455
scalar Network.dyn_peer[385] 	lookupTimeSig:mean 	1.1875
scalar Network.dyn_peer[385] 	lookupStabilitySig:mean 	0.8791695679538
scalar Network.dyn_peer[385] 	lookupHopsSig:mean 	11
scalar Network.dyn_peer[386] 	lookupTimeSig:mean 	2.1538461538462
scalar Network.dyn_peer[386] 	lookupStabilitySig:mean 	0.95207491015586
scalar Network.dyn_peer[386] 	lookupHopsSig:mean 	20.615384615385
scalar Network.dyn_peer[387] 	lookupTimeSig:mean 	4
scalar Network.dyn_peer[387] 	lookupStabilitySig:mean 	0.80600387230515
scalar Network.dyn_peer[387] 	lookupHopsSig:mean 	39.5
scalar Network.dyn_peer[388] 	lookupTimeSig:mean 	3.14
scalar Network.dyn_peer[388] 	lookupStabilitySig:mean 	0.6221115514636
scalar Network.dyn_peer[388] 	lookupHopsSig:mean 	30.6
scalar Network.dyn_peer[389] 	lookupTimeSig:mean 	3.25
scalar Network.dyn_peer[389] 	lookupStabilitySig:mean 	0.7440408305265
scalar Network.dyn_peer[389] 	lookupHopsSig:mean 	31.75
scalar Network.dyn_peer[390] 	lookupTimeSig:mean 	2.5666666666667
scalar Network.dyn_peer[390] 	lookupStabilitySig:mean 	0.76490891724825
scalar Network.dyn_peer[390] 	lookupHopsSig:mean 	25
scalar Network.dyn_peer[391] 	lookupTimeSig:mean 	1.4333333333333
scalar Network.dyn_peer[391] 	lookupStabilitySig:mean 	0.43251632650693
scalar Network.dyn_peer[391] 	lookupHopsSig:mean 	13.666666666667
scalar Network.dyn_peer[392] 	lookupTimeSig:mean 	1.96
scalar Network.dyn_peer[392] 	lookupStabilitySig:mean 	0.88394550075755
scalar Network.dyn_peer[392] 	lookupHopsSig:mean 	18.8
scalar Network.dyn_peer[393] 	lookupTimeSig:mean 	1.8222222222222
scalar Network.dyn_peer[393] 	lookupStabilitySig:mean 	0.76883155252371
scalar Network.dyn_peer[393] 	lookupHopsSig:mean 	17.333333333333
scalar Network.dyn_peer[394] 	lookupTimeSig:mean 	1.9333333333333
scalar Network.dyn_peer[394] 	lookupStabilitySig:mean 	0.75739705267673
scalar Network.dyn_peer[394] 	lookupHopsSig:mean 	18.5
scalar Network.dyn_peer[395] 	lookupTimeSig:mean 	1.9142857142857
scalar Network.dyn_peer[395] 	lookupStabilitySig:mean 	0.72404133954218
scalar Network.dyn_peer[395] 	lookupHopsSig:mean 	18.285714285714
scalar Network.dyn_peer[396] 	lookupTimeSig:mean 	2.4
scalar Network.dyn_peer[396] 	lookupStabilitySig:mean 	0.85190278664231
scalar Network.dyn_peer[396] 	lookupHopsSig:mean 	23.111111111111
scalar Network.dyn_peer[397] 	lookupTimeSig:mean 	1.48
scalar Network.dyn_peer[397] 	lookupStabilitySig:mean 	0.70212184824049
scalar Network.dyn_peer[397] 	lookupHopsSig:mean 	14
scalar Network.dyn_peer[398] 	lookupTimeSig:mean 	1.6
scalar Network.dyn_peer[398] 	lookupStabilitySig:mean 	0.72097538262606
scalar Network.dyn_peer[398] 	lookupHopsSig:mean 	15.2
scalar Network.dyn_peer[399] 	lookupTimeSig:mean 	1.9714285714286
scalar Network.dyn_peer[399] 	lookupStabilitySig:mean 	0.85516783648304
scalar Network.dyn_peer[399] 	lookupHopsSig:mean 	18.857142857143
scalar Network.dyn_peer[400] 	lookupTimeSig:mean 	1.475
scalar Network.dyn_peer[400] 	lookupStabilitySig:mean 	0.46125991456211
scalar Network.dyn_peer[400] 	lookupHopsSig:mean 	14
scalar Network.dyn_peer[401] 	lookupTimeSig:mean 	1.9125
scalar Network.dyn_peer[401] 	lookupStabilitySig:mean 	0.94693978928262
scalar Network.dyn_peer[401] 	lookupHopsSig:mean 	18.25
scalar Network.dyn_peer[402] 	lookupTimeSig:mean 	1.1333333333333
scalar Network.dyn_peer[402] 	lookupStabilitySig:mean 	0.54175738586734
scalar Network.dyn_peer[402] 	lookupHopsSig:mean 	10.5
scalar Network.dyn_peer[403] 	lookupTimeSig:mean 	1.7692307692308
scalar Network.dyn_peer[403] 	lookupStabilitySig:mean 	0.78300813929393
scalar Network.dyn_peer[403] 	lookupHopsSig:mean 	16.769230769231
scalar Network.dyn_peer[404] 	lookupTimeSig:mean 	1.425
scalar Network.dyn_peer[404] 	lookupStabilitySig:mean 	0.50194427371025
scalar Network.dyn_peer[404] 	lookupHopsSig:mean 	13.5
scalar Network.dyn_peer[405] 	lookupTimeSig:mean 	2.45
scalar Network.dyn_peer[405] 	lookupStabilitySig:mean 	0.63808487169445
scalar Network.dyn_peer[405] 	lookupHopsSig:mean 	23.75
scalar Network.dyn_peer[406] 	lookupTimeSig:mean 	1.03
scalar Network.dyn_peer[406] 	lookupStabilitySig:mean 	0.90333088911138
scalar Network.dyn_peer[406] 	lookupHopsSig:mean 	9.4
scalar Network.dyn_peer[407] 	lookupTimeSig:mean 	2.04
scalar Network.dyn_peer[407] 	lookupStabilitySig:mean 	0.85238105691969
scalar Network.dyn_peer[407] 	lookupHopsSig:mean 	19.6
scalar Network.dyn_peer[408] 	lookupTimeSig:mean 	1.94
scalar Network.dyn_peer[408] 	lookupStabilitySig:mean 	0.54407241158187
scalar Network.dyn_peer[408] 	lookupHopsSig:mean 	18.6
scalar Network.dyn_peer[409] 	lookupTimeSig:mean 	2.5166666666667
scalar Network.dyn_peer[409] 	lookupStabilitySig:mean 	0.88555788403998
scalar Network.dyn_peer[409] 	lookupHopsSig:mean 	24.333333333333
scalar Network.dyn_peer[410] 	lookupTimeSig:mean 	1.2333333333333
scalar Network.dyn_peer[410] 	lookupStabilitySig:mean 	0.2517482539018
scalar Network.dyn_peer[410] 	lookupHopsSig:mean 	11.666666666667
scalar Network.dyn_peer[411] 	lookupTimeSig:mean 	1.1909090909091
scalar Network.dyn_peer[411] 	lookupStabilitySig:mean 	0.75905794260854
scalar Network.dyn_peer[411] 	lookupHopsSig:mean 	11
scalar Network.dyn_peer[412] 	lookupTimeSig:mean 	3.3333333333333
scalar Network.dyn_peer[412] 	lookupStabilitySig:mean 	0.17384411891301
scalar Network.dyn_peer[412] 	lookupHopsSig:mean 	32.666666666667
scalar Network.dyn_peer[413] 	lookupTimeSig:mean 	1.46
scalar Network.dyn_peer[413] 	lookupStabilitySig:mean 	0.40461938865483
scalar Network.dyn_peer[413] 	lookupHopsSig:mean 	13.8
scalar Network.dyn_peer[414] 	lookupTimeSig:mean 	1.6333333333333
scalar Network.dyn_peer[414] 	lookupStabilitySig:mean 	0.04868195950985
scalar Network.dyn_peer[414] 	lookupHopsSig:mean 	15.666666666667
scalar Network.dyn_peer[415] 	lookupTimeSig:mean 	2.5166666666667
scalar Network.dyn_peer[415] 	lookupStabilitySig:mean 	0.8766981024916
scalar Network.dyn_peer[415] 	lookupHopsSig:mean 	24.333333333333
scalar Network.dyn_peer[416] 	lookupTimeSig:mean 	1.6
scalar Network.dyn_peer[416] 	lookupStabilitySig:mean 	0.38157570548356
scalar Network.dyn_peer[416] 	lookupHopsSig:mean 	15.25
scalar Network.dyn_peer[417] 	lookupTimeSig:mean 	1.48
scalar Network.dyn_peer[417] 	lookupStabilitySig:mean 	0.61737993136048
scalar Network.dyn_peer[417] 	lookupHopsSig:mean 	14
scalar Network.dyn_peer[418] 	lookupTimeSig:mean 	1.0666666666667
scalar Network.dyn_peer[418] 	lookupStabilitySig:mean 	0.11341990778844
scalar Network.dyn_peer[418] 	lookupHopsSig:mean 	10
scalar Network.dyn_peer[419] 	lookupTimeSig:mean 	3.85
scalar Network.dyn_peer[419] 	lookupStabilitySig:mean 	0.79209007695317
scalar Network.dyn_peer[419] 	lookupHopsSig:mean 	38
[...]
scalar Network.dyn_peer[896] 	lookupTimeSig:mean 	3.4666666666667
scalar Network.dyn_peer[896] 	lookupStabilitySig:mean 	0.48945147295793
scalar Network.dyn_peer[896] 	lookupHopsSig:mean 	34
scalar Network.dyn_peer[897] 	lookupTimeSig:mean 	1.8
scalar Network.dyn_peer[897] 	lookupStabilitySig:mean 	0.5022634267807
scalar Network.dyn_peer[897] 	lookupHopsSig:mean 	17.25
scalar Network.dyn_peer[898] 	lookupTimeSig:mean 	2.15
scalar Network.dyn_peer[898] 	lookupStabilitySig:mean 	0.94197887205519
scalar Network.dyn_peer[898] 	lookupHopsSig:mean 	20.625
scalar Network.dyn_peer[899] 	lookupTimeSig:mean 	0.75555555555556
scalar Network.dyn_peer[899] 	lookupStabilitySig:mean 	0.79845062125888
scalar Network.dyn_peer[899] 	lookupHopsSig:mean 	6.6666666666667
scalar Network.dyn_peer[900] 	lookupTimeSig:mean 	1.5375
scalar Network.dyn_peer[900] 	lookupStabilitySig:mean 	0.90817581344163
scalar Network.dyn_peer[900] 	lookupHopsSig:mean 	14.5
scalar Network.dyn_peer[901] 	lookupTimeSig:mean 	2.5142857142857
scalar Network.dyn_peer[901] 	lookupStabilitySig:mean 	0.91992339106011
scalar Network.dyn_peer[901] 	lookupHopsSig:mean 	24.285714285714
scalar Network.dyn_peer[902] 	lookupTimeSig:mean 	2.34
scalar Network.dyn_peer[902] 	lookupStabilitySig:mean 	0.84656703062356
scalar Network.dyn_peer[902] 	lookupHopsSig:mean 	22.6
scalar Network.dyn_peer[903] 	lookupTimeSig:mean 	1.9428571428571
scalar Network.dyn_peer[903] 	lookupStabilitySig:mean 	0.94320001213678
scalar Network.dyn_peer[903] 	lookupHopsSig:mean 	18.571428571429
scalar Network.dyn_peer[904] 	lookupTimeSig:mean 	3.0571428571429
scalar Network.dyn_peer[904] 	lookupStabilitySig:mean 	0.93426930199244
scalar Network.dyn_peer[904] 	lookupHopsSig:mean 	29.714285714286
scalar Network.dyn_peer[905] 	lookupTimeSig:mean 	2.0615384615385
scalar Network.dyn_peer[905] 	lookupStabilitySig:mean 	0.8503658588116
scalar Network.dyn_peer[905] 	lookupHopsSig:mean 	19.692307692308
scalar Network.dyn_peer[906] 	lookupTimeSig:mean 	2.8333333333333
scalar Network.dyn_peer[906] 	lookupStabilitySig:mean 	0.77027789503336
scalar Network.dyn_peer[906] 	lookupHopsSig:mean 	27.5
scalar Network.dyn_peer[907] 	lookupTimeSig:mean 	2.425
scalar Network.dyn_peer[907] 	lookupStabilitySig:mean 	0.66923005692661
scalar Network.dyn_peer[907] 	lookupHopsSig:mean 	23.5
scalar Network.dyn_peer[908] 	lookupTimeSig:mean 	1.325
scalar Network.dyn_peer[908] 	lookupStabilitySig:mean 	0.71528866933659
scalar Network.dyn_peer[908] 	lookupHopsSig:mean 	12.375
scalar Network.dyn_peer[909] 	lookupTimeSig:mean 	1.0777777777778
scalar Network.dyn_peer[909] 	lookupStabilitySig:mean 	0.82777149664859
scalar Network.dyn_peer[909] 	lookupHopsSig:mean 	9.8888888888889
scalar Network.dyn_peer[910] 	lookupTimeSig:mean 	1.8444444444444
scalar Network.dyn_peer[910] 	lookupStabilitySig:mean 	0.92856359212763
scalar Network.dyn_peer[910] 	lookupHopsSig:mean 	17.555555555556
scalar Network.dyn_peer[911] 	lookupTimeSig:mean 	3.9
scalar Network.dyn_peer[911] 	lookupStabilitySig:mean 	0.89796571061015
scalar Network.dyn_peer[911] 	lookupHopsSig:mean 	38.333333333333
scalar Network.dyn_peer[912] 	lookupTimeSig:mean 	2.725
scalar Network.dyn_peer[912] 	lookupStabilitySig:mean 	0.82069312408566
scalar Network.dyn_peer[912] 	lookupHopsSig:mean 	26.5
scalar Network.dyn_peer[913] 	lookupTimeSig:mean 	1.78
scalar Network.dyn_peer[913] 	lookupStabilitySig:mean 	0.57672421038151
scalar Network.dyn_peer[913] 	lookupHopsSig:mean 	17
scalar Network.dyn_peer[914] 	lookupTimeSig:mean 	1.1
scalar Network.dyn_peer[914] 	lookupStabilitySig:mean 	0.36198547482491
scalar Network.dyn_peer[914] 	lookupHopsSig:mean 	10.333333333333
scalar Network.dyn_peer[915] 	lookupTimeSig:mean 	2.3
scalar Network.dyn_peer[915] 	lookupStabilitySig:mean 	0.63263749368489
scalar Network.dyn_peer[915] 	lookupHopsSig:mean 	22.2
scalar Network.dyn_peer[916] 	lookupTimeSig:mean 	1.0333333333333
scalar Network.dyn_peer[916] 	lookupStabilitySig:mean 	0.88716199357683
scalar Network.dyn_peer[916] 	lookupHopsSig:mean 	9.4166666666667
scalar Network.dyn_peer[917] 	lookupTimeSig:mean 	2.0666666666667
scalar Network.dyn_peer[917] 	lookupStabilitySig:mean 	0.73685489594936
scalar Network.dyn_peer[917] 	lookupHopsSig:mean 	20
scalar Network.dyn_peer[918] 	lookupTimeSig:mean 	1.075
scalar Network.dyn_peer[918] 	lookupStabilitySig:mean 	0.89799554157071
scalar Network.dyn_peer[918] 	lookupHopsSig:mean 	9.875
scalar Network.dyn_peer[919] 	lookupTimeSig:mean 	1.6615384615385
scalar Network.dyn_peer[919] 	lookupStabilitySig:mean 	0.96540286076757
scalar Network.dyn_peer[919] 	lookupHopsSig:mean 	15.692307692308
scalar Network.dyn_peer[920] 	lookupTimeSig:mean 	2.06
scalar Network.dyn_peer[920] 	lookupStabilitySig:mean 	0.9303297450766
scalar Network.dyn_peer[920] 	lookupHopsSig:mean 	19.7
scalar Network.dyn_peer[921] 	lookupTimeSig:mean 	1.6
scalar Network.dyn_peer[921] 	lookupStabilitySig:mean 	0.55610709140698
scalar Network.dyn_peer[921] 	lookupHopsSig:mean 	15.333333333333
scalar Network.dyn_peer[922] 	lookupTimeSig:mean 	4.3
scalar Network.dyn_peer[922] 	lookupStabilitySig:mean 	0.2641965970397
scalar Network.dyn_peer[922] 	lookupHopsSig:mean 	42.5
scalar Network.dyn_peer[923] 	lookupTimeSig:mean 	2.1142857142857
scalar Network.dyn_peer[923] 	lookupStabilitySig:mean 	0.89190574948277
scalar Network.dyn_peer[923] 	lookupHopsSig:mean 	20.285714285714
scalar Network.dyn_peer[924] 	lookupTimeSig:mean 	1.5
scalar Network.dyn_peer[924] 	lookupStabilitySig:mean 	0.824206900162
scalar Network.dyn_peer[924] 	lookupHopsSig:mean 	14.166666666667
scalar Network.dyn_peer[925] 	lookupTimeSig:mean 	5.0666666666667
scalar Network.dyn_peer[925] 	lookupStabilitySig:mean 	0.85658068334063
scalar Network.dyn_peer[925] 	lookupHopsSig:mean 	50
scalar Network.dyn_peer[926] 	lookupTimeSig:mean 	2.3142857142857
scalar Network.dyn_peer[926] 	lookupStabilitySig:mean 	0.93021056641425
scalar Network.dyn_peer[926] 	lookupHopsSig:mean 	22.285714285714
scalar Network.dyn_peer[927] 	lookupTimeSig:mean 	1.9375
scalar Network.dyn_peer[927] 	lookupStabilitySig:mean 	0.89868699049111
scalar Network.dyn_peer[927] 	lookupHopsSig:mean 	18.5
scalar Network.dyn_peer[928] 	lookupTimeSig:mean 	1.575
scalar Network.dyn_peer[928] 	lookupStabilitySig:mean 	0.88598016207106
scalar Network.dyn_peer[928] 	lookupHopsSig:mean 	14.833333333333
scalar Network.dyn_peer[929] 	lookupTimeSig:mean 	2.525
scalar Network.dyn_peer[929] 	lookupStabilitySig:mean 	0.89414982171729
scalar Network.dyn_peer[929] 	lookupHopsSig:mean 	24.5
scalar Network.dyn_peer[930] 	lookupTimeSig:mean 	2.1142857142857
scalar Network.dyn_peer[930] 	lookupStabilitySig:mean 	0.87171502331538
scalar Network.dyn_peer[930] 	lookupHopsSig:mean 	20.285714285714
scalar Network.dyn_peer[931] 	lookupTimeSig:mean 	1.375
scalar Network.dyn_peer[931] 	lookupStabilitySig:mean 	0.72052117157727
scalar Network.dyn_peer[931] 	lookupHopsSig:mean 	13
scalar Network.dyn_peer[932] 	lookupTimeSig:mean 	1.9375
scalar Network.dyn_peer[932] 	lookupStabilitySig:mean 	0.75694733799901
scalar Network.dyn_peer[932] 	lookupHopsSig:mean 	18.5
scalar Network.dyn_peer[933] 	lookupTimeSig:mean 	2.3333333333333
scalar Network.dyn_peer[933] 	lookupStabilitySig:mean 	0.7620759839192
scalar Network.dyn_peer[933] 	lookupHopsSig:mean 	22.5
scalar Network.dyn_peer[934] 	lookupTimeSig:mean 	1.425
scalar Network.dyn_peer[934] 	lookupStabilitySig:mean 	0.81377313449048
scalar Network.dyn_peer[934] 	lookupHopsSig:mean 	13.375
scalar Network.dyn_peer[935] 	lookupTimeSig:mean 	1.9
scalar Network.dyn_peer[935] 	lookupStabilitySig:mean 	0.70414075752099
scalar Network.dyn_peer[935] 	lookupHopsSig:mean 	18.333333333333
scalar Network.dyn_peer[936] 	lookupTimeSig:mean 	1.7666666666667
scalar Network.dyn_peer[936] 	lookupStabilitySig:mean 	0.73931260717412
scalar Network.dyn_peer[936] 	lookupHopsSig:mean 	16.833333333333
scalar Network.dyn_peer[937] 	lookupTimeSig:mean 	2.4
scalar Network.dyn_peer[937] 	lookupStabilitySig:mean 	0.90827757455409
scalar Network.dyn_peer[937] 	lookupHopsSig:mean 	23.2
scalar Network.dyn_peer[938] 	lookupTimeSig:mean 	0.925
scalar Network.dyn_peer[938] 	lookupStabilitySig:mean 	0.77097484795377
scalar Network.dyn_peer[938] 	lookupHopsSig:mean 	8.375
scalar Network.dyn_peer[939] 	lookupTimeSig:mean 	1.8
scalar Network.dyn_peer[939] 	lookupStabilitySig:mean 	0.80874766549096
scalar Network.dyn_peer[939] 	lookupHopsSig:mean 	17.25
scalar Network.dyn_peer[940] 	lookupTimeSig:mean 	1.6
scalar Network.dyn_peer[940] 	lookupStabilitySig:mean 	0.82109401587929
scalar Network.dyn_peer[940] 	lookupHopsSig:mean 	15.142857142857
scalar Network.dyn_peer[941] 	lookupTimeSig:mean 	2.95
scalar Network.dyn_peer[941] 	lookupStabilitySig:mean 	0.90010940399952
scalar Network.dyn_peer[941] 	lookupHopsSig:mean 	28.75
scalar Network.dyn_peer[942] 	lookupTimeSig:mean 	1.7571428571429
scalar Network.dyn_peer[942] 	lookupStabilitySig:mean 	0.9336633748774
scalar Network.dyn_peer[942] 	lookupHopsSig:mean 	16.714285714286
scalar Network.dyn_peer[943] 	lookupTimeSig:mean 	1.7545454545455
scalar Network.dyn_peer[943] 	lookupStabilitySig:mean 	0.95241720119322
scalar Network.dyn_peer[943] 	lookupHopsSig:mean 	16.636363636364
scalar Network.dyn_peer[944] 	lookupTimeSig:mean 	1.9
scalar Network.dyn_peer[944] 	lookupStabilitySig:mean 	0.95199104381556
scalar Network.dyn_peer[944] 	lookupHopsSig:mean 	18.090909090909
scalar Network.dyn_peer[945] 	lookupTimeSig:mean 	0.78
scalar Network.dyn_peer[945] 	lookupStabilitySig:mean 	0.58430851697922
scalar Network.dyn_peer[945] 	lookupHopsSig:mean 	7
scalar Network.dyn_peer[946] 	lookupTimeSig:mean 	1.2666666666667
scalar Network.dyn_peer[946] 	lookupStabilitySig:mean 	0.9176897145549
scalar Network.dyn_peer[946] 	lookupHopsSig:mean 	11.777777777778
scalar Network.dyn_peer[947] 	lookupTimeSig:mean 	2.1272727272727
scalar Network.dyn_peer[947] 	lookupStabilitySig:mean 	0.90765423831445
scalar Network.dyn_peer[947] 	lookupHopsSig:mean 	20.363636363636
scalar Network.dyn_peer[948] 	lookupTimeSig:mean 	2.1
scalar Network.dyn_peer[948] 	lookupStabilitySig:mean 	0.93510140292346
scalar Network.dyn_peer[948] 	lookupHopsSig:mean 	20.142857142857
scalar Network.dyn_peer[949] 	lookupTimeSig:mean 	2.425
scalar Network.dyn_peer[949] 	lookupStabilitySig:mean 	0.65800454281271
scalar Network.dyn_peer[949] 	lookupHopsSig:mean 	23.5
scalar Network.dyn_peer[950] 	lookupTimeSig:mean 	2.16
scalar Network.dyn_peer[950] 	lookupStabilitySig:mean 	0.90434890631586
scalar Network.dyn_peer[950] 	lookupHopsSig:mean 	20.8
scalar Network.dyn_peer[951] 	lookupTimeSig:mean 	2.925
scalar Network.dyn_peer[951] 	lookupStabilitySig:mean 	0.84882514504716
scalar Network.dyn_peer[951] 	lookupHopsSig:mean 	28.5
scalar Network.dyn_peer[952] 	lookupTimeSig:mean 	1.6333333333333
scalar Network.dyn_peer[952] 	lookupStabilitySig:mean 	0.78899241983891
scalar Network.dyn_peer[952] 	lookupHopsSig:mean 	15.666666666667
scalar Network.dyn_peer[953] 	lookupTimeSig:mean 	0.8375
scalar Network.dyn_peer[953] 	lookupStabilitySig:mean 	0.74814695259556
scalar Network.dyn_peer[953] 	lookupHopsSig:mean 	7.5
scalar Network.dyn_peer[954] 	lookupTimeSig:mean 	1.5285714285714
scalar Network.dyn_peer[954] 	lookupStabilitySig:mean 	0.8937685949994
scalar Network.dyn_peer[954] 	lookupHopsSig:mean 	14.428571428571
scalar Network.dyn_peer[955] 	lookupTimeSig:mean 	2.0833333333333
scalar Network.dyn_peer[955] 	lookupStabilitySig:mean 	0.75981923115129
scalar Network.dyn_peer[955] 	lookupHopsSig:mean 	20
scalar Network.dyn_peer[956] 	lookupTimeSig:mean 	1.075
scalar Network.dyn_peer[956] 	lookupStabilitySig:mean 	0.72948416974396
scalar Network.dyn_peer[956] 	lookupHopsSig:mean 	9.875
scalar Network.dyn_peer[957] 	lookupTimeSig:mean 	2.05
scalar Network.dyn_peer[957] 	lookupStabilitySig:mean 	0.8592728190124
scalar Network.dyn_peer[957] 	lookupHopsSig:mean 	19.666666666667
scalar Network.dyn_peer[958] 	lookupTimeSig:mean 	1.3230769230769
scalar Network.dyn_peer[958] 	lookupStabilitySig:mean 	0.94986860529305
scalar Network.dyn_peer[958] 	lookupHopsSig:mean 	12.307692307692
scalar Network.dyn_peer[959] 	lookupTimeSig:mean 	1.7
scalar Network.dyn_peer[959] 	lookupStabilitySig:mean 	0.88959181991716
scalar Network.dyn_peer[959] 	lookupHopsSig:mean 	16.166666666667
scalar Network.dyn_peer[960] 	lookupTimeSig:mean 	3.075
scalar Network.dyn_peer[960] 	lookupStabilitySig:mean 	0.90120905265212
scalar Network.dyn_peer[960] 	lookupHopsSig:mean 	30
scalar Network.dyn_peer[961] 	lookupTimeSig:mean 	2
scalar Network.dyn_peer[961] 	lookupStabilitySig:mean 	0.94120441388804
scalar Network.dyn_peer[961] 	lookupHopsSig:mean 	19.125
scalar Network.dyn_peer[962] 	lookupTimeSig:mean 	1.7846153846154
scalar Network.dyn_peer[962] 	lookupStabilitySig:mean 	0.95265914435283
scalar Network.dyn_peer[962] 	lookupHopsSig:mean 	16.923076923077
scalar Network.dyn_peer[963] 	lookupTimeSig:mean 	2.1571428571429
scalar Network.dyn_peer[963] 	lookupStabilitySig:mean 	0.91225081070193
scalar Network.dyn_peer[963] 	lookupHopsSig:mean 	20.714285714286
scalar Network.dyn_peer[964] 	lookupTimeSig:mean 	2.32
scalar Network.dyn_peer[964] 	lookupStabilitySig:mean 	0.90193561129272
scalar Network.dyn_peer[964] 	lookupHopsSig:mean 	22.4
scalar Network.dyn_peer[965] 	lookupTimeSig:mean 	1.84
scalar Network.dyn_peer[965] 	lookupStabilitySig:mean 	0.86642882786691
scalar Network.dyn_peer[965] 	lookupHopsSig:mean 	17.6
scalar Network.dyn_peer[966] 	lookupTimeSig:mean 	3.4333333333333
scalar Network.dyn_peer[966] 	lookupStabilitySig:mean 	0.82811015844345
scalar Network.dyn_peer[966] 	lookupHopsSig:mean 	33.666666666667
scalar Network.dyn_peer[967] 	lookupTimeSig:mean 	1.0166666666667
scalar Network.dyn_peer[967] 	lookupStabilitySig:mean 	0.74280582213153
scalar Network.dyn_peer[967] 	lookupHopsSig:mean 	9.3333333333333
scalar Network.dyn_peer[968] 	lookupTimeSig:mean 	1.4833333333333
scalar Network.dyn_peer[968] 	lookupStabilitySig:mean 	0.88682353900125
scalar Network.dyn_peer[968] 	lookupHopsSig:mean 	14
scalar Network.dyn_peer[969] 	lookupTimeSig:mean 	1.9222222222222
scalar Network.dyn_peer[969] 	lookupStabilitySig:mean 	0.95796948836909
scalar Network.dyn_peer[969] 	lookupHopsSig:mean 	18.333333333333
scalar Network.dyn_peer[970] 	lookupTimeSig:mean 	3.9333333333333
scalar Network.dyn_peer[970] 	lookupStabilitySig:mean 	0.68424466003974
scalar Network.dyn_peer[970] 	lookupHopsSig:mean 	38.666666666667
scalar Network.dyn_peer[971] 	lookupTimeSig:mean 	2.7666666666667
scalar Network.dyn_peer[971] 	lookupStabilitySig:mean 	0.78226271954676
scalar Network.dyn_peer[971] 	lookupHopsSig:mean 	26.833333333333
scalar Network.dyn_peer[972] 	lookupTimeSig:mean 	1.4
scalar Network.dyn_peer[972] 	lookupStabilitySig:mean 	0.83347918605432
scalar Network.dyn_peer[972] 	lookupHopsSig:mean 	13.125
scalar Network.dyn_peer[973] 	lookupTimeSig:mean 	1.7166666666667
scalar Network.dyn_peer[973] 	lookupStabilitySig:mean 	0.86481808436414
scalar Network.dyn_peer[973] 	lookupHopsSig:mean 	16.333333333333
scalar Network.dyn_peer[974] 	lookupTimeSig:mean 	2.425
scalar Network.dyn_peer[974] 	lookupStabilitySig:mean 	0.711250805296
scalar Network.dyn_peer[974] 	lookupHopsSig:mean 	23.5
scalar Network.dyn_peer[975] 	lookupTimeSig:mean 	1.4833333333333
scalar Network.dyn_peer[975] 	lookupStabilitySig:mean 	0.76243584758292
scalar Network.dyn_peer[975] 	lookupHopsSig:mean 	14
scalar Network.dyn_peer[976] 	lookupTimeSig:mean 	1.9
scalar Network.dyn_peer[976] 	lookupStabilitySig:mean 	0.89318882979985
scalar Network.dyn_peer[976] 	lookupHopsSig:mean 	18.142857142857
scalar Network.dyn_peer[977] 	lookupTimeSig:mean 	3.0666666666667
scalar Network.dyn_peer[977] 	lookupStabilitySig:mean 	0.7659727782011
scalar Network.dyn_peer[977] 	lookupHopsSig:mean 	30
scalar Network.dyn_peer[978] 	lookupTimeSig:mean 	1.79
scalar Network.dyn_peer[978] 	lookupStabilitySig:mean 	0.9538154262118
scalar Network.dyn_peer[978] 	lookupHopsSig:mean 	17
scalar Network.dyn_peer[979] 	lookupTimeSig:mean 	1.7454545454545
scalar Network.dyn_peer[979] 	lookupStabilitySig:mean 	0.89466968864541
scalar Network.dyn_peer[979] 	lookupHopsSig:mean 	16.545454545455
scalar Network.dyn_peer[980] 	lookupTimeSig:mean 	3.4666666666667
scalar Network.dyn_peer[980] 	lookupStabilitySig:mean 	0.55894847214222
scalar Network.dyn_peer[980] 	lookupHopsSig:mean 	34
scalar Network.dyn_peer[981] 	lookupTimeSig:mean 	3.0666666666667
scalar Network.dyn_peer[981] 	lookupStabilitySig:mean 	0.8533538232247
scalar Network.dyn_peer[981] 	lookupHopsSig:mean 	30
scalar Network.dyn_peer[982] 	lookupTimeSig:mean 	1.8777777777778
scalar Network.dyn_peer[982] 	lookupStabilitySig:mean 	0.90349180608367
scalar Network.dyn_peer[982] 	lookupHopsSig:mean 	17.888888888889
scalar Network.dyn_peer[983] 	lookupTimeSig:mean 	1.65
scalar Network.dyn_peer[983] 	lookupStabilitySig:mean 	0.41269841045141
scalar Network.dyn_peer[983] 	lookupHopsSig:mean 	16
scalar Network.dyn_peer[984] 	lookupTimeSig:mean 	1.7
scalar Network.dyn_peer[984] 	lookupStabilitySig:mean 	0.80533360992558
scalar Network.dyn_peer[984] 	lookupHopsSig:mean 	16.2
scalar Network.dyn_peer[985] 	lookupTimeSig:mean 	1.2833333333333
scalar Network.dyn_peer[985] 	lookupStabilitySig:mean 	0.65673342812806
scalar Network.dyn_peer[985] 	lookupHopsSig:mean 	12
scalar Network.dyn_peer[986] 	lookupTimeSig:mean 	1.8727272727273
scalar Network.dyn_peer[986] 	lookupStabilitySig:mean 	0.95880335120654
scalar Network.dyn_peer[986] 	lookupHopsSig:mean 	17.818181818182
scalar Network.dyn_peer[987] 	lookupTimeSig:mean 	2.08
scalar Network.dyn_peer[987] 	lookupStabilitySig:mean 	0.87750795930624
scalar Network.dyn_peer[987] 	lookupHopsSig:mean 	20
scalar Network.dyn_peer[988] 	lookupTimeSig:mean 	1.38
scalar Network.dyn_peer[988] 	lookupStabilitySig:mean 	0.84063793644309
scalar Network.dyn_peer[988] 	lookupHopsSig:mean 	13
scalar Network.dyn_peer[989] 	lookupTimeSig:mean 	2.4
scalar Network.dyn_peer[989] 	lookupStabilitySig:mean 	0.93274434270071
scalar Network.dyn_peer[989] 	lookupHopsSig:mean 	23.142857142857
scalar Network.dyn_peer[990] 	lookupTimeSig:mean 	1.94
scalar Network.dyn_peer[990] 	lookupStabilitySig:mean 	0.78796370178461
scalar Network.dyn_peer[990] 	lookupHopsSig:mean 	18.6
scalar Network.dyn_peer[991] 	lookupTimeSig:mean 	2.6
scalar Network.dyn_peer[991] 	lookupStabilitySig:mean 	0.50378887355328
scalar Network.dyn_peer[991] 	lookupHopsSig:mean 	25.333333333333
scalar Network.dyn_peer[992] 	lookupTimeSig:mean 	2.45
scalar Network.dyn_peer[992] 	lookupStabilitySig:mean 	0.62559773772955
scalar Network.dyn_peer[992] 	lookupHopsSig:mean 	24
scalar Network.dyn_peer[993] 	lookupTimeSig:mean 	0.85
scalar Network.dyn_peer[993] 	lookupStabilitySig:mean 	0.7944522197824
scalar Network.dyn_peer[993] 	lookupHopsSig:mean 	7.6
scalar Network.dyn_peer[994] 	lookupTimeSig:mean 	1.9125
scalar Network.dyn_peer[994] 	lookupStabilitySig:mean 	0.88669325230876
scalar Network.dyn_peer[994] 	lookupHopsSig:mean 	18.25
scalar Network.dyn_peer[995] 	lookupTimeSig:mean 	3.08
scalar Network.dyn_peer[995] 	lookupStabilitySig:mean 	0.92371717430651
scalar Network.dyn_peer[995] 	lookupHopsSig:mean 	30
scalar Network.dyn_peer[996] 	lookupTimeSig:mean 	1.94
scalar Network.dyn_peer[996] 	lookupStabilitySig:mean 	0.91617245282978
scalar Network.dyn_peer[996] 	lookupHopsSig:mean 	18.6
scalar Network.dyn_peer[997] 	lookupTimeSig:mean 	1.4857142857143
scalar Network.dyn_peer[997] 	lookupStabilitySig:mean 	0.90534433617722
scalar Network.dyn_peer[997] 	lookupHopsSig:mean 	13.928571428571
scalar Network.dyn_peer[998] 	lookupTimeSig:mean 	2.85
scalar Network.dyn_peer[998] 	lookupStabilitySig:mean 	0.81645099787662
scalar Network.dyn_peer[998] 	lookupHopsSig:mean 	27.666666666667
scalar Network.dyn_peer[999] 	lookupTimeSig:mean 	2.4666666666667
scalar Network.dyn_peer[999] 	lookupStabilitySig:mean 	0.8860075022094
scalar Network.dyn_peer[999] 	lookupHopsSig:mean 	23.833333333333
scalar Network.churner 	inGoingSizeSig:mean 	499.000999001
