version 2
run Stability2-303-20130526-00:54:26-26640
attr configname Stability2
attr datetime 20130526-00:54:26
attr experiment Stability2
attr inifile omnetpp.ini
attr iterationvars $0=1000
attr iterationvars2 "$0=1000, $repetition=3"
attr measurement $0=1000
attr network Network
attr processid 26640
attr repetition 3
attr replication #3
attr resultdir results
attr runnumber 303
attr seedset 303

scalar Network.dyn_peer[0] 	lookupTimeSig:mean 	2.84
scalar Network.dyn_peer[0] 	lookupStabilitySig:mean 	0.8044004291296
scalar Network.dyn_peer[0] 	lookupHopsSig:mean 	27.6
scalar Network.dyn_peer[1] 	lookupTimeSig:mean 	2.1833333333333
scalar Network.dyn_peer[1] 	lookupStabilitySig:mean 	0.68531045224518
scalar Network.dyn_peer[1] 	lookupHopsSig:mean 	21
scalar Network.dyn_peer[2] 	lookupTimeSig:mean 	2.225
scalar Network.dyn_peer[2] 	lookupStabilitySig:mean 	0.49648290872574
scalar Network.dyn_peer[2] 	lookupHopsSig:mean 	21.5
scalar Network.dyn_peer[3] 	lookupTimeSig:mean 	3.175
scalar Network.dyn_peer[3] 	lookupStabilitySig:mean 	0.67966411891393
scalar Network.dyn_peer[3] 	lookupHopsSig:mean 	31
scalar Network.dyn_peer[4] 	lookupTimeSig:mean 	0.91666666666667
scalar Network.dyn_peer[4] 	lookupStabilitySig:mean 	0.78420292624893
scalar Network.dyn_peer[4] 	lookupHopsSig:mean 	8.25
scalar Network.dyn_peer[5] 	lookupTimeSig:mean 	1.7
scalar Network.dyn_peer[5] 	lookupStabilitySig:mean 	0.64870854020119
scalar Network.dyn_peer[5] 	lookupHopsSig:mean 	16.2
scalar Network.dyn_peer[6] 	lookupTimeSig:mean 	2.1857142857143
scalar Network.dyn_peer[6] 	lookupStabilitySig:mean 	0.81583231980247
scalar Network.dyn_peer[6] 	lookupHopsSig:mean 	21
scalar Network.dyn_peer[7] 	lookupTimeSig:mean 	2.675
scalar Network.dyn_peer[7] 	lookupStabilitySig:mean 	0.79212354472838
scalar Network.dyn_peer[7] 	lookupHopsSig:mean 	26
scalar Network.dyn_peer[8] 	lookupTimeSig:mean 	2.55
scalar Network.dyn_peer[8] 	lookupStabilitySig:mean 	0.57381314318627
scalar Network.dyn_peer[8] 	lookupHopsSig:mean 	24.75
scalar Network.dyn_peer[9] 	lookupTimeSig:mean 	0.9
scalar Network.dyn_peer[9] 	lookupStabilitySig:mean 	0.54135627746582
scalar Network.dyn_peer[9] 	lookupHopsSig:mean 	8.2
scalar Network.dyn_peer[10] 	lookupTimeSig:mean 	3.6666666666667
scalar Network.dyn_peer[10] 	lookupStabilitySig:mean 	0.72532982627551
scalar Network.dyn_peer[10] 	lookupHopsSig:mean 	36
scalar Network.dyn_peer[11] 	lookupTimeSig:mean 	2.34
scalar Network.dyn_peer[11] 	lookupStabilitySig:mean 	0.55685152411461
scalar Network.dyn_peer[11] 	lookupHopsSig:mean 	22.6
scalar Network.dyn_peer[12] 	lookupTimeSig:mean 	2.525
scalar Network.dyn_peer[12] 	lookupStabilitySig:mean 	0.48545982502401
scalar Network.dyn_peer[12] 	lookupHopsSig:mean 	24.5
scalar Network.dyn_peer[13] 	lookupTimeSig:mean 	1.9
scalar Network.dyn_peer[13] 	lookupStabilitySig:mean 	0.90298597540823
scalar Network.dyn_peer[13] 	lookupHopsSig:mean 	18.125
scalar Network.dyn_peer[14] 	lookupTimeSig:mean 	1.9
scalar Network.dyn_peer[14] 	lookupStabilitySig:mean 	0.40383943418662
scalar Network.dyn_peer[14] 	lookupHopsSig:mean 	18.333333333333
scalar Network.dyn_peer[15] 	lookupTimeSig:mean 	0.9
scalar Network.dyn_peer[15] 	lookupStabilitySig:mean 	0.52450216859579
scalar Network.dyn_peer[15] 	lookupHopsSig:mean 	8.2
scalar Network.dyn_peer[16] 	lookupTimeSig:mean 	2.0333333333333
scalar Network.dyn_peer[16] 	lookupStabilitySig:mean 	0.71786271842817
scalar Network.dyn_peer[16] 	lookupHopsSig:mean 	19.5
scalar Network.dyn_peer[17] 	lookupTimeSig:mean 	1.4
scalar Network.dyn_peer[17] 	lookupStabilitySig:mean 	0.6825966325899
scalar Network.dyn_peer[17] 	lookupHopsSig:mean 	13.166666666667
scalar Network.dyn_peer[18] 	lookupTimeSig:mean 	1.7625
scalar Network.dyn_peer[18] 	lookupStabilitySig:mean 	0.67908406816423
scalar Network.dyn_peer[18] 	lookupHopsSig:mean 	16.75
scalar Network.dyn_peer[19] 	lookupTimeSig:mean 	1.7307692307692
scalar Network.dyn_peer[19] 	lookupStabilitySig:mean 	0.84024638061125
scalar Network.dyn_peer[19] 	lookupHopsSig:mean 	16.384615384615
scalar Network.dyn_peer[20] 	lookupTimeSig:mean 	1.5428571428571
scalar Network.dyn_peer[20] 	lookupStabilitySig:mean 	0.82687857115109
scalar Network.dyn_peer[20] 	lookupHopsSig:mean 	14.571428571429
scalar Network.dyn_peer[21] 	lookupTimeSig:mean 	2.525
scalar Network.dyn_peer[21] 	lookupStabilitySig:mean 	0.83335717022419
scalar Network.dyn_peer[21] 	lookupHopsSig:mean 	24.375
scalar Network.dyn_peer[22] 	lookupTimeSig:mean 	2.9
scalar Network.dyn_peer[22] 	lookupStabilitySig:mean 	0.55065769876819
scalar Network.dyn_peer[22] 	lookupHopsSig:mean 	28.25
scalar Network.dyn_peer[23] 	lookupTimeSig:mean 	1.43125
scalar Network.dyn_peer[23] 	lookupStabilitySig:mean 	0.88589834631421
scalar Network.dyn_peer[23] 	lookupHopsSig:mean 	13.375
scalar Network.dyn_peer[24] 	lookupTimeSig:mean 	1.4166666666667
scalar Network.dyn_peer[24] 	lookupStabilitySig:mean 	0.60259079684814
scalar Network.dyn_peer[24] 	lookupHopsSig:mean 	13.333333333333
scalar Network.dyn_peer[25] 	lookupTimeSig:mean 	2.6
scalar Network.dyn_peer[25] 	lookupStabilitySig:mean 	0.66199068427086
scalar Network.dyn_peer[25] 	lookupHopsSig:mean 	25.2
scalar Network.dyn_peer[26] 	lookupTimeSig:mean 	2.5333333333333
scalar Network.dyn_peer[26] 	lookupStabilitySig:mean 	0.38250835736593
scalar Network.dyn_peer[26] 	lookupHopsSig:mean 	24.666666666667
scalar Network.dyn_peer[27] 	lookupTimeSig:mean 	0.775
scalar Network.dyn_peer[27] 	lookupStabilitySig:mean 	0.45125647261739
scalar Network.dyn_peer[27] 	lookupHopsSig:mean 	7
scalar Network.dyn_peer[28] 	lookupTimeSig:mean 	1.9
scalar Network.dyn_peer[28] 	lookupStabilitySig:mean 	0.8193489894537
scalar Network.dyn_peer[28] 	lookupHopsSig:mean 	18.142857142857
scalar Network.dyn_peer[29] 	lookupTimeSig:mean 	3.55
scalar Network.dyn_peer[29] 	lookupStabilitySig:mean 	0.5998925389722
scalar Network.dyn_peer[29] 	lookupHopsSig:mean 	34.75
scalar Network.dyn_peer[30] 	lookupTimeSig:mean 	3
scalar Network.dyn_peer[30] 	lookupStabilitySig:mean 	0.80849162489176
scalar Network.dyn_peer[30] 	lookupHopsSig:mean 	29.25
scalar Network.dyn_peer[31] 	lookupTimeSig:mean 	2.34
scalar Network.dyn_peer[31] 	lookupStabilitySig:mean 	0.84867327194661
scalar Network.dyn_peer[31] 	lookupHopsSig:mean 	22.6
scalar Network.dyn_peer[32] 	lookupTimeSig:mean 	1.95
scalar Network.dyn_peer[32] 	lookupStabilitySig:mean 	0.72238314392356
scalar Network.dyn_peer[32] 	lookupHopsSig:mean 	18.666666666667
scalar Network.dyn_peer[33] 	lookupTimeSig:mean 	3.5666666666667
scalar Network.dyn_peer[33] 	lookupStabilitySig:mean 	0.79690978924433
scalar Network.dyn_peer[33] 	lookupHopsSig:mean 	35
scalar Network.dyn_peer[34] 	lookupTimeSig:mean 	1.74
scalar Network.dyn_peer[34] 	lookupStabilitySig:mean 	0.66556697264314
scalar Network.dyn_peer[34] 	lookupHopsSig:mean 	16.6
scalar Network.dyn_peer[35] 	lookupTimeSig:mean 	1.0875
scalar Network.dyn_peer[35] 	lookupStabilitySig:mean 	0.86897751840297
scalar Network.dyn_peer[35] 	lookupHopsSig:mean 	9.9375
scalar Network.dyn_peer[36] 	lookupTimeSig:mean 	1.9
scalar Network.dyn_peer[36] 	lookupStabilitySig:mean 	0.40001590549946
scalar Network.dyn_peer[36] 	lookupHopsSig:mean 	18.333333333333
scalar Network.dyn_peer[37] 	lookupTimeSig:mean 	1.7142857142857
scalar Network.dyn_peer[37] 	lookupStabilitySig:mean 	0.70971631059157
scalar Network.dyn_peer[37] 	lookupHopsSig:mean 	16.285714285714
scalar Network.dyn_peer[38] 	lookupTimeSig:mean 	1.46
scalar Network.dyn_peer[38] 	lookupStabilitySig:mean 	0.5957957694307
scalar Network.dyn_peer[38] 	lookupHopsSig:mean 	13.8
scalar Network.dyn_peer[39] 	lookupTimeSig:mean 	2.15
scalar Network.dyn_peer[39] 	lookupStabilitySig:mean 	0.51710701733828
scalar Network.dyn_peer[39] 	lookupHopsSig:mean 	20.75
scalar Network.dyn_peer[40] 	lookupTimeSig:mean 	0.8
scalar Network.dyn_peer[40] 	lookupStabilitySig:mean 	0.76555026730057
scalar Network.dyn_peer[40] 	lookupHopsSig:mean 	7.125
scalar Network.dyn_peer[41] 	lookupTimeSig:mean 	1.3
scalar Network.dyn_peer[41] 	lookupStabilitySig:mean 	0.68038711262246
scalar Network.dyn_peer[41] 	lookupHopsSig:mean 	12.166666666667
scalar Network.dyn_peer[42] 	lookupTimeSig:mean 	1.8857142857143
scalar Network.dyn_peer[42] 	lookupStabilitySig:mean 	0.77987979698394
scalar Network.dyn_peer[42] 	lookupHopsSig:mean 	18
scalar Network.dyn_peer[43] 	lookupTimeSig:mean 	2.4
scalar Network.dyn_peer[43] 	lookupStabilitySig:mean 	0.39039224882921
scalar Network.dyn_peer[43] 	lookupHopsSig:mean 	23.333333333333
scalar Network.dyn_peer[44] 	lookupTimeSig:mean 	1.4571428571429
scalar Network.dyn_peer[44] 	lookupStabilitySig:mean 	0.79671270573246
scalar Network.dyn_peer[44] 	lookupHopsSig:mean 	13.714285714286
scalar Network.dyn_peer[45] 	lookupTimeSig:mean 	1.7875
scalar Network.dyn_peer[45] 	lookupStabilitySig:mean 	0.83141656219959
scalar Network.dyn_peer[45] 	lookupHopsSig:mean 	17
scalar Network.dyn_peer[46] 	lookupTimeSig:mean 	2
scalar Network.dyn_peer[46] 	lookupStabilitySig:mean 	0.59837025031447
scalar Network.dyn_peer[46] 	lookupHopsSig:mean 	19.25
scalar Network.dyn_peer[47] 	lookupTimeSig:mean 	1.52
scalar Network.dyn_peer[47] 	lookupStabilitySig:mean 	0.6701215967536
scalar Network.dyn_peer[47] 	lookupHopsSig:mean 	14.4
scalar Network.dyn_peer[48] 	lookupTimeSig:mean 	1.5166666666667
scalar Network.dyn_peer[48] 	lookupStabilitySig:mean 	0.62735933065414
scalar Network.dyn_peer[48] 	lookupHopsSig:mean 	14.333333333333
scalar Network.dyn_peer[49] 	lookupTimeSig:mean 	1.175
scalar Network.dyn_peer[49] 	lookupStabilitySig:mean 	0.5088675133884
scalar Network.dyn_peer[49] 	lookupHopsSig:mean 	11
scalar Network.dyn_peer[50] 	lookupTimeSig:mean 	1.38
scalar Network.dyn_peer[50] 	lookupStabilitySig:mean 	0.68696510531008
scalar Network.dyn_peer[50] 	lookupHopsSig:mean 	13
scalar Network.dyn_peer[51] 	lookupTimeSig:mean 	2.225
scalar Network.dyn_peer[51] 	lookupStabilitySig:mean 	0.73340158630162
scalar Network.dyn_peer[51] 	lookupHopsSig:mean 	21.5
scalar Network.dyn_peer[52] 	lookupTimeSig:mean 	0.74
scalar Network.dyn_peer[52] 	lookupStabilitySig:mean 	0.50348612070084
scalar Network.dyn_peer[52] 	lookupHopsSig:mean 	6.6
scalar Network.dyn_peer[53] 	lookupTimeSig:mean 	4.2333333333333
scalar Network.dyn_peer[53] 	lookupStabilitySig:mean 	0.43679092327754
scalar Network.dyn_peer[53] 	lookupHopsSig:mean 	41.666666666667
scalar Network.dyn_peer[54] 	lookupTimeSig:mean 	1.95
scalar Network.dyn_peer[54] 	lookupStabilitySig:mean 	0.45981543324888
scalar Network.dyn_peer[54] 	lookupHopsSig:mean 	18.75
scalar Network.dyn_peer[55] 	lookupTimeSig:mean 	1.225
scalar Network.dyn_peer[55] 	lookupStabilitySig:mean 	0.6231233580038
scalar Network.dyn_peer[55] 	lookupHopsSig:mean 	11.5
scalar Network.dyn_peer[56] 	lookupTimeSig:mean 	1.2181818181818
scalar Network.dyn_peer[56] 	lookupStabilitySig:mean 	0.7702417250892
scalar Network.dyn_peer[56] 	lookupHopsSig:mean 	11.272727272727
scalar Network.dyn_peer[57] 	lookupTimeSig:mean 	2.3333333333333
scalar Network.dyn_peer[57] 	lookupStabilitySig:mean 	0.57412254810333
scalar Network.dyn_peer[57] 	lookupHopsSig:mean 	22.666666666667
scalar Network.dyn_peer[58] 	lookupTimeSig:mean 	0.96666666666667
scalar Network.dyn_peer[58] 	lookupStabilitySig:mean 	0.38259109854698
scalar Network.dyn_peer[58] 	lookupHopsSig:mean 	9
scalar Network.dyn_peer[59] 	lookupTimeSig:mean 	2
scalar Network.dyn_peer[59] 	lookupStabilitySig:mean 	0.70225199513758
scalar Network.dyn_peer[59] 	lookupHopsSig:mean 	19.166666666667
scalar Network.dyn_peer[60] 	lookupTimeSig:mean 	2.0714285714286
scalar Network.dyn_peer[60] 	lookupStabilitySig:mean 	0.90670549344005
scalar Network.dyn_peer[60] 	lookupHopsSig:mean 	19.785714285714
scalar Network.dyn_peer[61] 	lookupTimeSig:mean 	1.88
scalar Network.dyn_peer[61] 	lookupStabilitySig:mean 	0.77679199483246
scalar Network.dyn_peer[61] 	lookupHopsSig:mean 	18
scalar Network.dyn_peer[62] 	lookupTimeSig:mean 	1.9
scalar Network.dyn_peer[62] 	lookupStabilitySig:mean 	0.56754451896995
scalar Network.dyn_peer[62] 	lookupHopsSig:mean 	18.25
scalar Network.dyn_peer[63] 	lookupTimeSig:mean 	1.775
scalar Network.dyn_peer[63] 	lookupStabilitySig:mean 	0.68776893429458
scalar Network.dyn_peer[63] 	lookupHopsSig:mean 	17
scalar Network.dyn_peer[64] 	lookupTimeSig:mean 	3.15
scalar Network.dyn_peer[64] 	lookupStabilitySig:mean 	0.65848581586033
scalar Network.dyn_peer[64] 	lookupHopsSig:mean 	30.666666666667
scalar Network.dyn_peer[65] 	lookupTimeSig:mean 	2.9333333333333
scalar Network.dyn_peer[65] 	lookupStabilitySig:mean 	0.84399383639296
scalar Network.dyn_peer[65] 	lookupHopsSig:mean 	28.666666666667
scalar Network.dyn_peer[66] 	lookupTimeSig:mean 	1.15
scalar Network.dyn_peer[66] 	lookupStabilitySig:mean 	0.073369562625885
scalar Network.dyn_peer[66] 	lookupHopsSig:mean 	11
scalar Network.dyn_peer[67] 	lookupTimeSig:mean 	1.8571428571429
scalar Network.dyn_peer[67] 	lookupStabilitySig:mean 	0.74989962364946
scalar Network.dyn_peer[67] 	lookupHopsSig:mean 	17.714285714286
scalar Network.dyn_peer[68] 	lookupTimeSig:mean 	2.11
scalar Network.dyn_peer[68] 	lookupStabilitySig:mean 	0.85740852422314
scalar Network.dyn_peer[68] 	lookupHopsSig:mean 	20.2
scalar Network.dyn_peer[69] 	lookupTimeSig:mean 	2.58
scalar Network.dyn_peer[69] 	lookupStabilitySig:mean 	0.84809578508139
scalar Network.dyn_peer[69] 	lookupHopsSig:mean 	25
scalar Network.dyn_peer[70] 	lookupTimeSig:mean 	1.7625
scalar Network.dyn_peer[70] 	lookupStabilitySig:mean 	0.89818052691408
scalar Network.dyn_peer[70] 	lookupHopsSig:mean 	16.75
scalar Network.dyn_peer[71] 	lookupTimeSig:mean 	1.025
scalar Network.dyn_peer[71] 	lookupStabilitySig:mean 	0.76928184437566
scalar Network.dyn_peer[71] 	lookupHopsSig:mean 	9.375
scalar Network.dyn_peer[72] 	lookupTimeSig:mean 	1.6777777777778
scalar Network.dyn_peer[72] 	lookupStabilitySig:mean 	0.89366595157319
scalar Network.dyn_peer[72] 	lookupHopsSig:mean 	15.888888888889
scalar Network.dyn_peer[73] 	lookupTimeSig:mean 	1.675
scalar Network.dyn_peer[73] 	lookupStabilitySig:mean 	0.85456771780446
scalar Network.dyn_peer[73] 	lookupHopsSig:mean 	15.8125
scalar Network.dyn_peer[74] 	lookupTimeSig:mean 	1.7571428571429
scalar Network.dyn_peer[74] 	lookupStabilitySig:mean 	0.80328546943409
scalar Network.dyn_peer[74] 	lookupHopsSig:mean 	16.714285714286
scalar Network.dyn_peer[75] 	lookupTimeSig:mean 	0.8
scalar Network.dyn_peer[75] 	lookupStabilitySig:mean 	0.47239545360208
scalar Network.dyn_peer[75] 	lookupHopsSig:mean 	7.25
scalar Network.dyn_peer[76] 	lookupTimeSig:mean 	1.78
scalar Network.dyn_peer[76] 	lookupStabilitySig:mean 	0.66205711662769
scalar Network.dyn_peer[76] 	lookupHopsSig:mean 	17
scalar Network.dyn_peer[77] 	lookupTimeSig:mean 	1.68
scalar Network.dyn_peer[77] 	lookupStabilitySig:mean 	0.59444433450699
scalar Network.dyn_peer[77] 	lookupHopsSig:mean 	16
scalar Network.dyn_peer[78] 	lookupTimeSig:mean 	1.225
scalar Network.dyn_peer[78] 	lookupStabilitySig:mean 	0.44014252349734
scalar Network.dyn_peer[78] 	lookupHopsSig:mean 	11.5
scalar Network.dyn_peer[79] 	lookupTimeSig:mean 	1.3
scalar Network.dyn_peer[79] 	lookupStabilitySig:mean 	0.8095269003883
scalar Network.dyn_peer[79] 	lookupHopsSig:mean 	12.1
scalar Network.dyn_peer[80] 	lookupTimeSig:mean 	2.05
scalar Network.dyn_peer[80] 	lookupStabilitySig:mean 	0.88861231133342
scalar Network.dyn_peer[80] 	lookupHopsSig:mean 	19.75
scalar Network.dyn_peer[81] 	lookupTimeSig:mean 	0.74
scalar Network.dyn_peer[81] 	lookupStabilitySig:mean 	0.56944917142391
scalar Network.dyn_peer[81] 	lookupHopsSig:mean 	6.6
scalar Network.dyn_peer[82] 	lookupTimeSig:mean 	2.54
scalar Network.dyn_peer[82] 	lookupStabilitySig:mean 	0.78164602518082
scalar Network.dyn_peer[82] 	lookupHopsSig:mean 	24.6
scalar Network.dyn_peer[83] 	lookupTimeSig:mean 	3.45
scalar Network.dyn_peer[83] 	lookupStabilitySig:mean 	0.37195122241974
scalar Network.dyn_peer[83] 	lookupHopsSig:mean 	34
scalar Network.dyn_peer[84] 	lookupTimeSig:mean 	1.3
scalar Network.dyn_peer[84] 	lookupStabilitySig:mean 	0.76320545861704
scalar Network.dyn_peer[84] 	lookupHopsSig:mean 	12.111111111111
scalar Network.dyn_peer[85] 	lookupTimeSig:mean 	3.875
scalar Network.dyn_peer[85] 	lookupStabilitySig:mean 	0.83079291009926
scalar Network.dyn_peer[85] 	lookupHopsSig:mean 	38
scalar Network.dyn_peer[86] 	lookupTimeSig:mean 	0.8
scalar Network.dyn_peer[86] 	lookupStabilitySig:mean 	0.41432358821233
scalar Network.dyn_peer[86] 	lookupHopsSig:mean 	7.3333333333333
scalar Network.dyn_peer[87] 	lookupTimeSig:mean 	1.8833333333333
scalar Network.dyn_peer[87] 	lookupStabilitySig:mean 	0.71270445889483
scalar Network.dyn_peer[87] 	lookupHopsSig:mean 	18
scalar Network.dyn_peer[88] 	lookupTimeSig:mean 	1.9
scalar Network.dyn_peer[88] 	lookupStabilitySig:mean 	0.7817258451134
scalar Network.dyn_peer[88] 	lookupHopsSig:mean 	18.2
scalar Network.dyn_peer[89] 	lookupTimeSig:mean 	1.1333333333333
scalar Network.dyn_peer[89] 	lookupStabilitySig:mean 	0.42805411914984
scalar Network.dyn_peer[89] 	lookupHopsSig:mean 	10.666666666667
scalar Network.dyn_peer[90] 	lookupTimeSig:mean 	1.6142857142857
scalar Network.dyn_peer[90] 	lookupStabilitySig:mean 	0.73107903078198
scalar Network.dyn_peer[90] 	lookupHopsSig:mean 	15.285714285714
scalar Network.dyn_peer[91] 	lookupTimeSig:mean 	4.2666666666667
scalar Network.dyn_peer[91] 	lookupStabilitySig:mean 	0.48829474672675
scalar Network.dyn_peer[91] 	lookupHopsSig:mean 	42
scalar Network.dyn_peer[92] 	lookupTimeSig:mean 	2.5
scalar Network.dyn_peer[92] 	lookupStabilitySig:mean 	0.85415966343135
scalar Network.dyn_peer[92] 	lookupHopsSig:mean 	24.25
scalar Network.dyn_peer[93] 	lookupTimeSig:mean 	3.1666666666667
scalar Network.dyn_peer[93] 	lookupStabilitySig:mean 	0.5558122942845
scalar Network.dyn_peer[93] 	lookupHopsSig:mean 	31
scalar Network.dyn_peer[94] 	lookupTimeSig:mean 	3.2666666666667
scalar Network.dyn_peer[94] 	lookupStabilitySig:mean 	0.43621571858724
scalar Network.dyn_peer[94] 	lookupHopsSig:mean 	32
scalar Network.dyn_peer[95] 	lookupTimeSig:mean 	1.72
scalar Network.dyn_peer[95] 	lookupStabilitySig:mean 	0.57330737449229
scalar Network.dyn_peer[95] 	lookupHopsSig:mean 	16.4
scalar Network.dyn_peer[96] 	lookupTimeSig:mean 	2.86
scalar Network.dyn_peer[96] 	lookupStabilitySig:mean 	0.90550262944307
scalar Network.dyn_peer[96] 	lookupHopsSig:mean 	27.8
scalar Network.dyn_peer[97] 	lookupTimeSig:mean 	1.1666666666667
scalar Network.dyn_peer[97] 	lookupStabilitySig:mean 	0.3323232481877
scalar Network.dyn_peer[97] 	lookupHopsSig:mean 	11
scalar Network.dyn_peer[98] 	lookupTimeSig:mean 	1
scalar Network.dyn_peer[98] 	lookupStabilitySig:mean 	0.70233443677425
scalar Network.dyn_peer[98] 	lookupHopsSig:mean 	9.2
scalar Network.dyn_peer[99] 	lookupTimeSig:mean 	0.6
scalar Network.dyn_peer[99] 	lookupStabilitySig:mean 	0.21666668355465
scalar Network.dyn_peer[99] 	lookupHopsSig:mean 	5.5
scalar Network.dyn_peer[100] 	lookupTimeSig:mean 	3.1666666666667
scalar Network.dyn_peer[100] 	lookupStabilitySig:mean 	0.39416951934497
scalar Network.dyn_peer[100] 	lookupHopsSig:mean 	31
scalar Network.dyn_peer[101] 	lookupTimeSig:mean 	1.625
scalar Network.dyn_peer[101] 	lookupStabilitySig:mean 	0.75444463966414
scalar Network.dyn_peer[101] 	lookupHopsSig:mean 	15.375
scalar Network.dyn_peer[102] 	lookupTimeSig:mean 	1.4545454545455
scalar Network.dyn_peer[102] 	lookupStabilitySig:mean 	0.82361597051336
scalar Network.dyn_peer[102] 	lookupHopsSig:mean 	13.636363636364
scalar Network.dyn_peer[103] 	lookupTimeSig:mean 	1.4125
scalar Network.dyn_peer[103] 	lookupStabilitySig:mean 	0.77977555384859
scalar Network.dyn_peer[103] 	lookupHopsSig:mean 	13.25
scalar Network.dyn_peer[104] 	lookupTimeSig:mean 	1.75
scalar Network.dyn_peer[104] 	lookupStabilitySig:mean 	0.71968469396234
scalar Network.dyn_peer[104] 	lookupHopsSig:mean 	16.75
scalar Network.dyn_peer[105] 	lookupTimeSig:mean 	1.3666666666667
scalar Network.dyn_peer[105] 	lookupStabilitySig:mean 	0.38724197944005
scalar Network.dyn_peer[105] 	lookupHopsSig:mean 	13
scalar Network.dyn_peer[106] 	lookupTimeSig:mean 	1.625
scalar Network.dyn_peer[106] 	lookupStabilitySig:mean 	0.81830574936854
scalar Network.dyn_peer[106] 	lookupHopsSig:mean 	15.333333333333
scalar Network.dyn_peer[107] 	lookupTimeSig:mean 	1.6
scalar Network.dyn_peer[107] 	lookupStabilitySig:mean 	0.43863635882735
scalar Network.dyn_peer[107] 	lookupHopsSig:mean 	15.25
scalar Network.dyn_peer[108] 	lookupTimeSig:mean 	2.14
scalar Network.dyn_peer[108] 	lookupStabilitySig:mean 	0.74122387226671
scalar Network.dyn_peer[108] 	lookupHopsSig:mean 	20.6
scalar Network.dyn_peer[109] 	lookupTimeSig:mean 	1.375
scalar Network.dyn_peer[109] 	lookupStabilitySig:mean 	0.54822309035808
scalar Network.dyn_peer[109] 	lookupHopsSig:mean 	13
scalar Network.dyn_peer[110] 	lookupTimeSig:mean 	1.3454545454545
scalar Network.dyn_peer[110] 	lookupStabilitySig:mean 	0.87574306020344
scalar Network.dyn_peer[110] 	lookupHopsSig:mean 	12.545454545455
scalar Network.dyn_peer[111] 	lookupTimeSig:mean 	0.5
scalar Network.dyn_peer[111] 	lookupStabilitySig:mean 	0.66025640629232
scalar Network.dyn_peer[111] 	lookupHopsSig:mean 	4.1666666666667
scalar Network.dyn_peer[112] 	lookupTimeSig:mean 	2.1
scalar Network.dyn_peer[112] 	lookupStabilitySig:mean 	0.72101572404305
scalar Network.dyn_peer[112] 	lookupHopsSig:mean 	20.166666666667
scalar Network.dyn_peer[113] 	lookupTimeSig:mean 	1.7272727272727
scalar Network.dyn_peer[113] 	lookupStabilitySig:mean 	0.90719705202024
scalar Network.dyn_peer[113] 	lookupHopsSig:mean 	16.363636363636
scalar Network.dyn_peer[114] 	lookupTimeSig:mean 	2.425
scalar Network.dyn_peer[114] 	lookupStabilitySig:mean 	0.58479507267475
scalar Network.dyn_peer[114] 	lookupHopsSig:mean 	23.5
scalar Network.dyn_peer[115] 	lookupTimeSig:mean 	1.9
scalar Network.dyn_peer[115] 	lookupStabilitySig:mean 	0.79688184449656
scalar Network.dyn_peer[115] 	lookupHopsSig:mean 	18.111111111111
scalar Network.dyn_peer[116] 	lookupTimeSig:mean 	1.2833333333333
scalar Network.dyn_peer[116] 	lookupStabilitySig:mean 	0.64497359593709
scalar Network.dyn_peer[116] 	lookupHopsSig:mean 	12
scalar Network.dyn_peer[117] 	lookupTimeSig:mean 	2.4666666666667
scalar Network.dyn_peer[117] 	lookupStabilitySig:mean 	0.737750234548
scalar Network.dyn_peer[117] 	lookupHopsSig:mean 	23.833333333333
scalar Network.dyn_peer[118] 	lookupTimeSig:mean 	1.7555555555556
scalar Network.dyn_peer[118] 	lookupStabilitySig:mean 	0.86050109597596
scalar Network.dyn_peer[118] 	lookupHopsSig:mean 	16.666666666667
scalar Network.dyn_peer[119] 	lookupTimeSig:mean 	1.325
scalar Network.dyn_peer[119] 	lookupStabilitySig:mean 	0.51059669815004
scalar Network.dyn_peer[119] 	lookupHopsSig:mean 	12.5
scalar Network.dyn_peer[120] 	lookupTimeSig:mean 	1.6923076923077
scalar Network.dyn_peer[120] 	lookupStabilitySig:mean 	0.94065416160111
scalar Network.dyn_peer[120] 	lookupHopsSig:mean 	16
scalar Network.dyn_peer[121] 	lookupTimeSig:mean 	1.5142857142857
scalar Network.dyn_peer[121] 	lookupStabilitySig:mean 	0.83582735833313
scalar Network.dyn_peer[121] 	lookupHopsSig:mean 	14.285714285714
scalar Network.dyn_peer[122] 	lookupTimeSig:mean 	1.8714285714286
scalar Network.dyn_peer[122] 	lookupStabilitySig:mean 	0.93422461034996
scalar Network.dyn_peer[122] 	lookupHopsSig:mean 	17.857142857143
scalar Network.dyn_peer[123] 	lookupTimeSig:mean 	5.4
scalar Network.dyn_peer[123] 	lookupStabilitySig:mean 	0.87583147796492
scalar Network.dyn_peer[123] 	lookupHopsSig:mean 	53.333333333333
scalar Network.dyn_peer[124] 	lookupTimeSig:mean 	1.9666666666667
scalar Network.dyn_peer[124] 	lookupStabilitySig:mean 	0.72210376088818
scalar Network.dyn_peer[124] 	lookupHopsSig:mean 	19
scalar Network.dyn_peer[125] 	lookupTimeSig:mean 	3.125
scalar Network.dyn_peer[125] 	lookupStabilitySig:mean 	0.76904295943677
scalar Network.dyn_peer[125] 	lookupHopsSig:mean 	30.5
scalar Network.dyn_peer[126] 	lookupTimeSig:mean 	1.51
scalar Network.dyn_peer[126] 	lookupStabilitySig:mean 	0.80499110971577
scalar Network.dyn_peer[126] 	lookupHopsSig:mean 	14.2
scalar Network.dyn_peer[127] 	lookupTimeSig:mean 	1.3
scalar Network.dyn_peer[127] 	lookupStabilitySig:mean 	0.43184591333071
scalar Network.dyn_peer[127] 	lookupHopsSig:mean 	12.333333333333
scalar Network.dyn_peer[128] 	lookupTimeSig:mean 	1.5285714285714
scalar Network.dyn_peer[128] 	lookupStabilitySig:mean 	0.85921477410011
scalar Network.dyn_peer[128] 	lookupHopsSig:mean 	14.357142857143
scalar Network.dyn_peer[129] 	lookupTimeSig:mean 	1.38
scalar Network.dyn_peer[129] 	lookupStabilitySig:mean 	0.64297327697277
scalar Network.dyn_peer[129] 	lookupHopsSig:mean 	13
scalar Network.dyn_peer[130] 	lookupTimeSig:mean 	1.9666666666667
scalar Network.dyn_peer[130] 	lookupStabilitySig:mean 	0.75719293408717
scalar Network.dyn_peer[130] 	lookupHopsSig:mean 	18.833333333333
scalar Network.dyn_peer[131] 	lookupTimeSig:mean 	1.2272727272727
scalar Network.dyn_peer[131] 	lookupStabilitySig:mean 	0.83272598395971
scalar Network.dyn_peer[131] 	lookupHopsSig:mean 	11.363636363636
scalar Network.dyn_peer[132] 	lookupTimeSig:mean 	1.4285714285714
scalar Network.dyn_peer[132] 	lookupStabilitySig:mean 	0.93823842637773
scalar Network.dyn_peer[132] 	lookupHopsSig:mean 	13.428571428571
scalar Network.dyn_peer[133] 	lookupTimeSig:mean 	0.925
scalar Network.dyn_peer[133] 	lookupStabilitySig:mean 	0.4690259732306
scalar Network.dyn_peer[133] 	lookupHopsSig:mean 	8.5
scalar Network.dyn_peer[134] 	lookupTimeSig:mean 	1.85
scalar Network.dyn_peer[134] 	lookupStabilitySig:mean 	0.75538658723235
scalar Network.dyn_peer[134] 	lookupHopsSig:mean 	17.75
scalar Network.dyn_peer[135] 	lookupTimeSig:mean 	1.05
scalar Network.dyn_peer[135] 	lookupStabilitySig:mean 	0.63843055783461
scalar Network.dyn_peer[135] 	lookupHopsSig:mean 	9.6666666666667
scalar Network.dyn_peer[136] 	lookupTimeSig:mean 	1.7428571428571
scalar Network.dyn_peer[136] 	lookupStabilitySig:mean 	0.73856758539166
scalar Network.dyn_peer[136] 	lookupHopsSig:mean 	16.571428571429
scalar Network.dyn_peer[137] 	lookupTimeSig:mean 	1.8166666666667
scalar Network.dyn_peer[137] 	lookupStabilitySig:mean 	0.91260940053811
scalar Network.dyn_peer[137] 	lookupHopsSig:mean 	17.333333333333
scalar Network.dyn_peer[138] 	lookupTimeSig:mean 	1.3777777777778
scalar Network.dyn_peer[138] 	lookupStabilitySig:mean 	0.85206124528001
scalar Network.dyn_peer[138] 	lookupHopsSig:mean 	12.888888888889
scalar Network.dyn_peer[139] 	lookupTimeSig:mean 	1.2833333333333
scalar Network.dyn_peer[139] 	lookupStabilitySig:mean 	0.6903483249868
scalar Network.dyn_peer[139] 	lookupHopsSig:mean 	12
scalar Network.dyn_peer[140] 	lookupTimeSig:mean 	1.3384615384615
scalar Network.dyn_peer[140] 	lookupStabilitySig:mean 	0.93192403484136
scalar Network.dyn_peer[140] 	lookupHopsSig:mean 	12.461538461538
scalar Network.dyn_peer[141] 	lookupTimeSig:mean 	0.7
scalar Network.dyn_peer[141] 	lookupStabilitySig:mean 	0.63567441552877
scalar Network.dyn_peer[141] 	lookupHopsSig:mean 	6.2
scalar Network.dyn_peer[142] 	lookupTimeSig:mean 	1.525
scalar Network.dyn_peer[142] 	lookupStabilitySig:mean 	0.44137081503868
scalar Network.dyn_peer[142] 	lookupHopsSig:mean 	14.5
scalar Network.dyn_peer[143] 	lookupTimeSig:mean 	1.4285714285714
scalar Network.dyn_peer[143] 	lookupStabilitySig:mean 	0.90904584846326
scalar Network.dyn_peer[143] 	lookupHopsSig:mean 	13.428571428571
scalar Network.dyn_peer[144] 	lookupTimeSig:mean 	1.55
scalar Network.dyn_peer[144] 	lookupStabilitySig:mean 	0.93697369171423
scalar Network.dyn_peer[144] 	lookupHopsSig:mean 	14.625
scalar Network.dyn_peer[145] 	lookupTimeSig:mean 	2.425
scalar Network.dyn_peer[145] 	lookupStabilitySig:mean 	0.95507693319814
scalar Network.dyn_peer[145] 	lookupHopsSig:mean 	23.375
scalar Network.dyn_peer[146] 	lookupTimeSig:mean 	0.95
scalar Network.dyn_peer[146] 	lookupStabilitySig:mean 	0.62193605490029
scalar Network.dyn_peer[146] 	lookupHopsSig:mean 	8.75
scalar Network.dyn_peer[147] 	lookupTimeSig:mean 	2.15
scalar Network.dyn_peer[147] 	lookupStabilitySig:mean 	0.91912311990745
scalar Network.dyn_peer[147] 	lookupHopsSig:mean 	20.625
scalar Network.dyn_peer[148] 	lookupTimeSig:mean 	4.025
scalar Network.dyn_peer[148] 	lookupStabilitySig:mean 	0.91742154443637
scalar Network.dyn_peer[148] 	lookupHopsSig:mean 	39.5
scalar Network.dyn_peer[149] 	lookupTimeSig:mean 	2.0111111111111
scalar Network.dyn_peer[149] 	lookupStabilitySig:mean 	0.93005959793097
scalar Network.dyn_peer[149] 	lookupHopsSig:mean 	19.222222222222
scalar Network.dyn_peer[150] 	lookupTimeSig:mean 	2.075
scalar Network.dyn_peer[150] 	lookupStabilitySig:mean 	0.76559447217733
scalar Network.dyn_peer[150] 	lookupHopsSig:mean 	20
scalar Network.dyn_peer[151] 	lookupTimeSig:mean 	2.8333333333333
scalar Network.dyn_peer[151] 	lookupStabilitySig:mean 	0.85524203752478
scalar Network.dyn_peer[151] 	lookupHopsSig:mean 	27.666666666667
scalar Network.dyn_peer[152] 	lookupTimeSig:mean 	1.12
scalar Network.dyn_peer[152] 	lookupStabilitySig:mean 	0.55195365846157
scalar Network.dyn_peer[152] 	lookupHopsSig:mean 	10.4
scalar Network.dyn_peer[153] 	lookupTimeSig:mean 	1.04
scalar Network.dyn_peer[153] 	lookupStabilitySig:mean 	0.7957724836655
scalar Network.dyn_peer[153] 	lookupHopsSig:mean 	9.6
scalar Network.dyn_peer[154] 	lookupTimeSig:mean 	2.2777777777778
scalar Network.dyn_peer[154] 	lookupStabilitySig:mean 	0.88401068446951
scalar Network.dyn_peer[154] 	lookupHopsSig:mean 	21.888888888889
scalar Network.dyn_peer[155] 	lookupTimeSig:mean 	1
scalar Network.dyn_peer[155] 	lookupStabilitySig:mean 	0.41980682810148
scalar Network.dyn_peer[155] 	lookupHopsSig:mean 	9.3333333333333
scalar Network.dyn_peer[156] 	lookupTimeSig:mean 	1.75
scalar Network.dyn_peer[156] 	lookupStabilitySig:mean 	0.72361950265865
scalar Network.dyn_peer[156] 	lookupHopsSig:mean 	16.666666666667
scalar Network.dyn_peer[157] 	lookupTimeSig:mean 	0.84285714285714
scalar Network.dyn_peer[157] 	lookupStabilitySig:mean 	0.7058893269194
scalar Network.dyn_peer[157] 	lookupHopsSig:mean 	7.5714285714286
scalar Network.dyn_peer[158] 	lookupTimeSig:mean 	2.05
scalar Network.dyn_peer[158] 	lookupStabilitySig:mean 	0.84873484168202
scalar Network.dyn_peer[158] 	lookupHopsSig:mean 	19.75
scalar Network.dyn_peer[159] 	lookupTimeSig:mean 	1.8333333333333
scalar Network.dyn_peer[159] 	lookupStabilitySig:mean 	0.4091269671917
scalar Network.dyn_peer[159] 	lookupHopsSig:mean 	17.666666666667
scalar Network.dyn_peer[160] 	lookupTimeSig:mean 	1.34
scalar Network.dyn_peer[160] 	lookupStabilitySig:mean 	0.62667502760887
scalar Network.dyn_peer[160] 	lookupHopsSig:mean 	12.6
scalar Network.dyn_peer[161] 	lookupTimeSig:mean 	1.27
scalar Network.dyn_peer[161] 	lookupStabilitySig:mean 	0.82657672635978
scalar Network.dyn_peer[161] 	lookupHopsSig:mean 	11.8
scalar Network.dyn_peer[162] 	lookupTimeSig:mean 	1.1333333333333
scalar Network.dyn_peer[162] 	lookupStabilitySig:mean 	0.81826812608374
scalar Network.dyn_peer[162] 	lookupHopsSig:mean 	10.444444444444
scalar Network.dyn_peer[163] 	lookupTimeSig:mean 	1
scalar Network.dyn_peer[163] 	lookupStabilitySig:mean 	0.25793649752935
scalar Network.dyn_peer[163] 	lookupHopsSig:mean 	9.3333333333333
scalar Network.dyn_peer[164] 	lookupTimeSig:mean 	1.3333333333333
scalar Network.dyn_peer[164] 	lookupStabilitySig:mean 	0.74343636321525
scalar Network.dyn_peer[164] 	lookupHopsSig:mean 	12.444444444444
scalar Network.dyn_peer[165] 	lookupTimeSig:mean 	1.3727272727273
scalar Network.dyn_peer[165] 	lookupStabilitySig:mean 	0.94661089147187
scalar Network.dyn_peer[165] 	lookupHopsSig:mean 	12.818181818182
scalar Network.dyn_peer[166] 	lookupTimeSig:mean 	2.26
scalar Network.dyn_peer[166] 	lookupStabilitySig:mean 	0.77294428758323
scalar Network.dyn_peer[166] 	lookupHopsSig:mean 	21.8
scalar Network.dyn_peer[167] 	lookupTimeSig:mean 	1.25
scalar Network.dyn_peer[167] 	lookupStabilitySig:mean 	0.80965145351365
scalar Network.dyn_peer[167] 	lookupHopsSig:mean 	11.625
scalar Network.dyn_peer[168] 	lookupTimeSig:mean 	1.7142857142857
scalar Network.dyn_peer[168] 	lookupStabilitySig:mean 	0.82199120295367
scalar Network.dyn_peer[168] 	lookupHopsSig:mean 	16.285714285714
scalar Network.dyn_peer[169] 	lookupTimeSig:mean 	1.975
scalar Network.dyn_peer[169] 	lookupStabilitySig:mean 	0.66219315305352
scalar Network.dyn_peer[169] 	lookupHopsSig:mean 	19
scalar Network.dyn_peer[170] 	lookupTimeSig:mean 	1.2076923076923
scalar Network.dyn_peer[170] 	lookupStabilitySig:mean 	0.92699597660416
scalar Network.dyn_peer[170] 	lookupHopsSig:mean 	11.153846153846
scalar Network.dyn_peer[171] 	lookupTimeSig:mean 	2.3727272727273
scalar Network.dyn_peer[171] 	lookupStabilitySig:mean 	0.93258066814054
scalar Network.dyn_peer[171] 	lookupHopsSig:mean 	22.818181818182
scalar Network.dyn_peer[172] 	lookupTimeSig:mean 	1.55
scalar Network.dyn_peer[172] 	lookupStabilitySig:mean 	0.56468659825623
scalar Network.dyn_peer[172] 	lookupHopsSig:mean 	14.75
scalar Network.dyn_peer[173] 	lookupTimeSig:mean 	1.1
scalar Network.dyn_peer[173] 	lookupStabilitySig:mean 	0.14583332836628
scalar Network.dyn_peer[173] 	lookupHopsSig:mean 	10.5
scalar Network.dyn_peer[174] 	lookupTimeSig:mean 	3.1
scalar Network.dyn_peer[174] 	lookupStabilitySig:mean 	0.25524713099003
scalar Network.dyn_peer[174] 	lookupHopsSig:mean 	30.5
scalar Network.dyn_peer[175] 	lookupTimeSig:mean 	2.2222222222222
scalar Network.dyn_peer[175] 	lookupStabilitySig:mean 	0.95430103997286
scalar Network.dyn_peer[175] 	lookupHopsSig:mean 	21.333333333333
scalar Network.dyn_peer[176] 	lookupTimeSig:mean 	1.7125
scalar Network.dyn_peer[176] 	lookupStabilitySig:mean 	0.91466442518868
scalar Network.dyn_peer[176] 	lookupHopsSig:mean 	16.25
scalar Network.dyn_peer[177] 	lookupTimeSig:mean 	3.1
scalar Network.dyn_peer[177] 	lookupStabilitySig:mean 	0.76900675396125
scalar Network.dyn_peer[177] 	lookupHopsSig:mean 	30.333333333333
scalar Network.dyn_peer[178] 	lookupTimeSig:mean 	2.4142857142857
scalar Network.dyn_peer[178] 	lookupStabilitySig:mean 	0.95555718828525
scalar Network.dyn_peer[178] 	lookupHopsSig:mean 	23.285714285714
scalar Network.dyn_peer[179] 	lookupTimeSig:mean 	1.8666666666667
scalar Network.dyn_peer[179] 	lookupStabilitySig:mean 	0.901433861504
scalar Network.dyn_peer[179] 	lookupHopsSig:mean 	17.833333333333
scalar Network.dyn_peer[180] 	lookupTimeSig:mean 	2.2166666666667
scalar Network.dyn_peer[180] 	lookupStabilitySig:mean 	0.92997758338849
scalar Network.dyn_peer[180] 	lookupHopsSig:mean 	21.333333333333
scalar Network.dyn_peer[181] 	lookupTimeSig:mean 	1.9
scalar Network.dyn_peer[181] 	lookupStabilitySig:mean 	0.66951467003673
scalar Network.dyn_peer[181] 	lookupHopsSig:mean 	18.25
scalar Network.dyn_peer[182] 	lookupTimeSig:mean 	1.4857142857143
scalar Network.dyn_peer[182] 	lookupStabilitySig:mean 	0.84487172954583
scalar Network.dyn_peer[182] 	lookupHopsSig:mean 	14
scalar Network.dyn_peer[183] 	lookupTimeSig:mean 	2.8
scalar Network.dyn_peer[183] 	lookupStabilitySig:mean 	0.95117284650249
scalar Network.dyn_peer[183] 	lookupHopsSig:mean 	27.142857142857
scalar Network.dyn_peer[184] 	lookupTimeSig:mean 	1.12
scalar Network.dyn_peer[184] 	lookupStabilitySig:mean 	0.76385909020901
scalar Network.dyn_peer[184] 	lookupHopsSig:mean 	10.4
scalar Network.dyn_peer[185] 	lookupTimeSig:mean 	2.54
scalar Network.dyn_peer[185] 	lookupStabilitySig:mean 	0.81800896562636
scalar Network.dyn_peer[185] 	lookupHopsSig:mean 	24.6
scalar Network.dyn_peer[186] 	lookupTimeSig:mean 	1.74
scalar Network.dyn_peer[186] 	lookupStabilitySig:mean 	0.6477822586894
scalar Network.dyn_peer[186] 	lookupHopsSig:mean 	16.6
scalar Network.dyn_peer[187] 	lookupTimeSig:mean 	1.6333333333333
scalar Network.dyn_peer[187] 	lookupStabilitySig:mean 	0.81577062482635
scalar Network.dyn_peer[187] 	lookupHopsSig:mean 	15.5
scalar Network.dyn_peer[188] 	lookupTimeSig:mean 	3
scalar Network.dyn_peer[188] 	lookupStabilitySig:mean 	0.60035733948462
scalar Network.dyn_peer[188] 	lookupHopsSig:mean 	29.25
scalar Network.dyn_peer[189] 	lookupTimeSig:mean 	6.15
scalar Network.dyn_peer[189] 	lookupStabilitySig:mean 	0.87031026184559
scalar Network.dyn_peer[189] 	lookupHopsSig:mean 	61
scalar Network.dyn_peer[190] 	lookupTimeSig:mean 	1.1
scalar Network.dyn_peer[190] 	lookupStabilitySig:mean 	0.59872835222632
scalar Network.dyn_peer[190] 	lookupHopsSig:mean 	10.25
scalar Network.dyn_peer[191] 	lookupTimeSig:mean 	2.24
scalar Network.dyn_peer[191] 	lookupStabilitySig:mean 	0.86641042158008
scalar Network.dyn_peer[191] 	lookupHopsSig:mean 	21.6
scalar Network.dyn_peer[192] 	lookupTimeSig:mean 	0.97777777777778
scalar Network.dyn_peer[192] 	lookupStabilitySig:mean 	0.80138800709715
scalar Network.dyn_peer[192] 	lookupHopsSig:mean 	8.8888888888889
scalar Network.dyn_peer[193] 	lookupTimeSig:mean 	1.8
scalar Network.dyn_peer[193] 	lookupStabilitySig:mean 	0.78127055778168
scalar Network.dyn_peer[193] 	lookupHopsSig:mean 	17.125
scalar Network.dyn_peer[194] 	lookupTimeSig:mean 	2.075
scalar Network.dyn_peer[194] 	lookupStabilitySig:mean 	0.56688981316984
scalar Network.dyn_peer[194] 	lookupHopsSig:mean 	20
scalar Network.dyn_peer[195] 	lookupTimeSig:mean 	2.6
scalar Network.dyn_peer[195] 	lookupStabilitySig:mean 	0.56846107915044
scalar Network.dyn_peer[195] 	lookupHopsSig:mean 	25.25
scalar Network.dyn_peer[196] 	lookupTimeSig:mean 	4.7
scalar Network.dyn_peer[196] 	lookupStabilitySig:mean 	0.28079710155725
scalar Network.dyn_peer[196] 	lookupHopsSig:mean 	46.5
scalar Network.dyn_peer[197] 	lookupTimeSig:mean 	1.25
scalar Network.dyn_peer[197] 	lookupStabilitySig:mean 	0.85684572497848
scalar Network.dyn_peer[197] 	lookupHopsSig:mean 	11.583333333333
scalar Network.dyn_peer[198] 	lookupTimeSig:mean 	2.1
scalar Network.dyn_peer[198] 	lookupStabilitySig:mean 	0.73427602928132
scalar Network.dyn_peer[198] 	lookupHopsSig:mean 	20.142857142857
scalar Network.dyn_peer[199] 	lookupTimeSig:mean 	1.5
scalar Network.dyn_peer[199] 	lookupStabilitySig:mean 	0.58187211863697
scalar Network.dyn_peer[199] 	lookupHopsSig:mean 	14.25
scalar Network.dyn_peer[200] 	lookupTimeSig:mean 	1.84
scalar Network.dyn_peer[200] 	lookupStabilitySig:mean 	0.86766265835613
scalar Network.dyn_peer[200] 	lookupHopsSig:mean 	17.6
scalar Network.dyn_peer[201] 	lookupTimeSig:mean 	2
scalar Network.dyn_peer[201] 	lookupStabilitySig:mean 	0.66340826948484
scalar Network.dyn_peer[201] 	lookupHopsSig:mean 	19.333333333333
scalar Network.dyn_peer[202] 	lookupTimeSig:mean 	1.4888888888889
scalar Network.dyn_peer[202] 	lookupStabilitySig:mean 	0.84620371190572
scalar Network.dyn_peer[202] 	lookupHopsSig:mean 	14
scalar Network.dyn_peer[203] 	lookupTimeSig:mean 	2.3111111111111
scalar Network.dyn_peer[203] 	lookupStabilitySig:mean 	0.9469686070871
scalar Network.dyn_peer[203] 	lookupHopsSig:mean 	22.222222222222
scalar Network.dyn_peer[204] 	lookupTimeSig:mean 	1.7666666666667
scalar Network.dyn_peer[204] 	lookupStabilitySig:mean 	0.74476055987179
scalar Network.dyn_peer[204] 	lookupHopsSig:mean 	16.833333333333
scalar Network.dyn_peer[205] 	lookupTimeSig:mean 	1.9
scalar Network.dyn_peer[205] 	lookupStabilitySig:mean 	0.55030029267073
scalar Network.dyn_peer[205] 	lookupHopsSig:mean 	18.5
scalar Network.dyn_peer[206] 	lookupTimeSig:mean 	2.5333333333333
scalar Network.dyn_peer[206] 	lookupStabilitySig:mean 	0.82811894267797
scalar Network.dyn_peer[206] 	lookupHopsSig:mean 	24.666666666667
scalar Network.dyn_peer[207] 	lookupTimeSig:mean 	1.55
scalar Network.dyn_peer[207] 	lookupStabilitySig:mean 	0.95659817423439
scalar Network.dyn_peer[207] 	lookupHopsSig:mean 	14.583333333333
scalar Network.dyn_peer[208] 	lookupTimeSig:mean 	2.4714285714286
scalar Network.dyn_peer[208] 	lookupStabilitySig:mean 	0.95120419535254
scalar Network.dyn_peer[208] 	lookupHopsSig:mean 	23.857142857143
scalar Network.dyn_peer[209] 	lookupTimeSig:mean 	1.1666666666667
scalar Network.dyn_peer[209] 	lookupStabilitySig:mean 	0.5688758790493
scalar Network.dyn_peer[209] 	lookupHopsSig:mean 	11
scalar Network.dyn_peer[210] 	lookupTimeSig:mean 	4
scalar Network.dyn_peer[210] 	lookupStabilitySig:mean 	0.58882392384112
scalar Network.dyn_peer[210] 	lookupHopsSig:mean 	39.25
scalar Network.dyn_peer[211] 	lookupTimeSig:mean 	1.25
scalar Network.dyn_peer[211] 	lookupStabilitySig:mean 	0.82920954665169
scalar Network.dyn_peer[211] 	lookupHopsSig:mean 	11.6
scalar Network.dyn_peer[212] 	lookupTimeSig:mean 	1.5666666666667
scalar Network.dyn_peer[212] 	lookupStabilitySig:mean 	0.72050270996988
scalar Network.dyn_peer[212] 	lookupHopsSig:mean 	14.833333333333
scalar Network.dyn_peer[213] 	lookupTimeSig:mean 	1.8692307692308
scalar Network.dyn_peer[213] 	lookupStabilitySig:mean 	0.95248909702954
scalar Network.dyn_peer[213] 	lookupHopsSig:mean 	17.769230769231
scalar Network.dyn_peer[214] 	lookupTimeSig:mean 	1.58
scalar Network.dyn_peer[214] 	lookupStabilitySig:mean 	0.86363897388801
scalar Network.dyn_peer[214] 	lookupHopsSig:mean 	15
scalar Network.dyn_peer[215] 	lookupTimeSig:mean 	1.9444444444444
scalar Network.dyn_peer[215] 	lookupStabilitySig:mean 	0.95530675869021
scalar Network.dyn_peer[215] 	lookupHopsSig:mean 	18.555555555556
scalar Network.dyn_peer[216] 	lookupTimeSig:mean 	1.675
scalar Network.dyn_peer[216] 	lookupStabilitySig:mean 	0.74922247044742
scalar Network.dyn_peer[216] 	lookupHopsSig:mean 	16
scalar Network.dyn_peer[217] 	lookupTimeSig:mean 	2.62
scalar Network.dyn_peer[217] 	lookupStabilitySig:mean 	0.76303198300302
scalar Network.dyn_peer[217] 	lookupHopsSig:mean 	25.4
scalar Network.dyn_peer[218] 	lookupTimeSig:mean 	1.1333333333333
scalar Network.dyn_peer[218] 	lookupStabilitySig:mean 	0.45826203127702
scalar Network.dyn_peer[218] 	lookupHopsSig:mean 	10.666666666667
scalar Network.dyn_peer[219] 	lookupTimeSig:mean 	2.4090909090909
scalar Network.dyn_peer[219] 	lookupStabilitySig:mean 	0.96872265924784
scalar Network.dyn_peer[219] 	lookupHopsSig:mean 	23.181818181818
scalar Network.dyn_peer[220] 	lookupTimeSig:mean 	1.5923076923077
scalar Network.dyn_peer[220] 	lookupStabilitySig:mean 	0.91927091265097
scalar Network.dyn_peer[220] 	lookupHopsSig:mean 	15
scalar Network.dyn_peer[221] 	lookupTimeSig:mean 	1.5125
scalar Network.dyn_peer[221] 	lookupStabilitySig:mean 	0.78741308592726
scalar Network.dyn_peer[221] 	lookupHopsSig:mean 	14.25
scalar Network.dyn_peer[222] 	lookupTimeSig:mean 	1.14
scalar Network.dyn_peer[222] 	lookupStabilitySig:mean 	0.64289420172572
scalar Network.dyn_peer[222] 	lookupHopsSig:mean 	10.6
scalar Network.dyn_peer[223] 	lookupTimeSig:mean 	2.4285714285714
scalar Network.dyn_peer[223] 	lookupStabilitySig:mean 	0.93910292057054
scalar Network.dyn_peer[223] 	lookupHopsSig:mean 	23.428571428571
scalar Network.dyn_peer[224] 	lookupTimeSig:mean 	2.55
scalar Network.dyn_peer[224] 	lookupStabilitySig:mean 	0.89472128078341
scalar Network.dyn_peer[224] 	lookupHopsSig:mean 	24.75
scalar Network.dyn_peer[225] 	lookupTimeSig:mean 	1.7
scalar Network.dyn_peer[225] 	lookupStabilitySig:mean 	0.75956787647946
scalar Network.dyn_peer[225] 	lookupHopsSig:mean 	16.142857142857
scalar Network.dyn_peer[226] 	lookupTimeSig:mean 	2.0857142857143
scalar Network.dyn_peer[226] 	lookupStabilitySig:mean 	0.94315770148699
scalar Network.dyn_peer[226] 	lookupHopsSig:mean 	20
scalar Network.dyn_peer[227] 	lookupTimeSig:mean 	1.65
scalar Network.dyn_peer[227] 	lookupStabilitySig:mean 	0.36842103302479
scalar Network.dyn_peer[227] 	lookupHopsSig:mean 	16
scalar Network.dyn_peer[228] 	lookupTimeSig:mean 	2.55
scalar Network.dyn_peer[228] 	lookupStabilitySig:mean 	0.88840131927282
scalar Network.dyn_peer[228] 	lookupHopsSig:mean 	24.666666666667
scalar Network.dyn_peer[229] 	lookupTimeSig:mean 	1.3714285714286
scalar Network.dyn_peer[229] 	lookupStabilitySig:mean 	0.70592622512153
scalar Network.dyn_peer[229] 	lookupHopsSig:mean 	12.857142857143
scalar Network.dyn_peer[230] 	lookupTimeSig:mean 	1.5666666666667
scalar Network.dyn_peer[230] 	lookupStabilitySig:mean 	0.44419839481513
scalar Network.dyn_peer[230] 	lookupHopsSig:mean 	15
scalar Network.dyn_peer[231] 	lookupTimeSig:mean 	1.68
scalar Network.dyn_peer[231] 	lookupStabilitySig:mean 	0.80554492343217
scalar Network.dyn_peer[231] 	lookupHopsSig:mean 	16
scalar Network.dyn_peer[232] 	lookupTimeSig:mean 	1.85
scalar Network.dyn_peer[232] 	lookupStabilitySig:mean 	0.81560941360658
scalar Network.dyn_peer[232] 	lookupHopsSig:mean 	17.625
scalar Network.dyn_peer[233] 	lookupTimeSig:mean 	1.5833333333333
scalar Network.dyn_peer[233] 	lookupStabilitySig:mean 	0.70035471580923
scalar Network.dyn_peer[233] 	lookupHopsSig:mean 	15
scalar Network.dyn_peer[234] 	lookupTimeSig:mean 	2.275
scalar Network.dyn_peer[234] 	lookupStabilitySig:mean 	0.58001911453903
scalar Network.dyn_peer[234] 	lookupHopsSig:mean 	22
scalar Network.dyn_peer[235] 	lookupTimeSig:mean 	1.4142857142857
scalar Network.dyn_peer[235] 	lookupStabilitySig:mean 	0.78267542113151
scalar Network.dyn_peer[235] 	lookupHopsSig:mean 	13.285714285714
scalar Network.dyn_peer[236] 	lookupTimeSig:mean 	1.75
scalar Network.dyn_peer[236] 	lookupStabilitySig:mean 	0.84969562711194
scalar Network.dyn_peer[236] 	lookupHopsSig:mean 	16.625
scalar Network.dyn_peer[237] 	lookupTimeSig:mean 	1.4666666666667
scalar Network.dyn_peer[237] 	lookupStabilitySig:mean 	0.53643078605334
scalar Network.dyn_peer[237] 	lookupHopsSig:mean 	14
scalar Network.dyn_peer[238] 	lookupTimeSig:mean 	1.6666666666667
scalar Network.dyn_peer[238] 	lookupStabilitySig:mean 	0.76157256122679
scalar Network.dyn_peer[238] 	lookupHopsSig:mean 	15.833333333333
scalar Network.dyn_peer[239] 	lookupTimeSig:mean 	2.1
scalar Network.dyn_peer[239] 	lookupStabilitySig:mean 	0.85446779429913
scalar Network.dyn_peer[239] 	lookupHopsSig:mean 	20.166666666667
scalar Network.dyn_peer[240] 	lookupTimeSig:mean 	1.6153846153846
scalar Network.dyn_peer[240] 	lookupStabilitySig:mean 	0.93347394393864
scalar Network.dyn_peer[240] 	lookupHopsSig:mean 	15.230769230769
scalar Network.dyn_peer[241] 	lookupTimeSig:mean 	4.8333333333333
scalar Network.dyn_peer[241] 	lookupStabilitySig:mean 	0.42831842104594
scalar Network.dyn_peer[241] 	lookupHopsSig:mean 	47.666666666667
scalar Network.dyn_peer[242] 	lookupTimeSig:mean 	2.05
scalar Network.dyn_peer[242] 	lookupStabilitySig:mean 	0.74498664517887
scalar Network.dyn_peer[242] 	lookupHopsSig:mean 	19.625
scalar Network.dyn_peer[243] 	lookupTimeSig:mean 	1.16
scalar Network.dyn_peer[243] 	lookupStabilitySig:mean 	0.6417323499918
scalar Network.dyn_peer[243] 	lookupHopsSig:mean 	10.8
scalar Network.dyn_peer[244] 	lookupTimeSig:mean 	2.2777777777778
scalar Network.dyn_peer[244] 	lookupStabilitySig:mean 	0.9575763681593
scalar Network.dyn_peer[244] 	lookupHopsSig:mean 	21.888888888889
scalar Network.dyn_peer[245] 	lookupTimeSig:mean 	1.4
scalar Network.dyn_peer[245] 	lookupStabilitySig:mean 	0.62510741055012
scalar Network.dyn_peer[245] 	lookupHopsSig:mean 	13.2
scalar Network.dyn_peer[246] 	lookupTimeSig:mean 	2.4
scalar Network.dyn_peer[246] 	lookupStabilitySig:mean 	0.90892739460937
scalar Network.dyn_peer[246] 	lookupHopsSig:mean 	23.142857142857
scalar Network.dyn_peer[247] 	lookupTimeSig:mean 	1.7
scalar Network.dyn_peer[247] 	lookupStabilitySig:mean 	0.74425875227898
scalar Network.dyn_peer[247] 	lookupHopsSig:mean 	16.2
scalar Network.dyn_peer[248] 	lookupTimeSig:mean 	2.625
scalar Network.dyn_peer[248] 	lookupStabilitySig:mean 	0.86753796599805
scalar Network.dyn_peer[248] 	lookupHopsSig:mean 	25.5
scalar Network.dyn_peer[249] 	lookupTimeSig:mean 	1.75
scalar Network.dyn_peer[249] 	lookupStabilitySig:mean 	0.94029458088335
scalar Network.dyn_peer[249] 	lookupHopsSig:mean 	16.625
scalar Network.dyn_peer[250] 	lookupTimeSig:mean 	1.3
scalar Network.dyn_peer[250] 	lookupStabilitySig:mean 	0.26336896419525
scalar Network.dyn_peer[250] 	lookupHopsSig:mean 	12.5
scalar Network.dyn_peer[251] 	lookupTimeSig:mean 	1.5375
scalar Network.dyn_peer[251] 	lookupStabilitySig:mean 	0.69871042505838
scalar Network.dyn_peer[251] 	lookupHopsSig:mean 	14.5
scalar Network.dyn_peer[252] 	lookupTimeSig:mean 	1.15
scalar Network.dyn_peer[252] 	lookupStabilitySig:mean 	0.80614767161508
scalar Network.dyn_peer[252] 	lookupHopsSig:mean 	10.666666666667
scalar Network.dyn_peer[253] 	lookupTimeSig:mean 	3.52
scalar Network.dyn_peer[253] 	lookupStabilitySig:mean 	0.80283808894455
scalar Network.dyn_peer[253] 	lookupHopsSig:mean 	34.4
scalar Network.dyn_peer[254] 	lookupTimeSig:mean 	2.8
scalar Network.dyn_peer[254] 	lookupStabilitySig:mean 	0.77978927455842
scalar Network.dyn_peer[254] 	lookupHopsSig:mean 	27.5
scalar Network.dyn_peer[255] 	lookupTimeSig:mean 	2.7333333333333
scalar Network.dyn_peer[255] 	lookupStabilitySig:mean 	0.7256668433547
scalar Network.dyn_peer[255] 	lookupHopsSig:mean 	26.666666666667
scalar Network.dyn_peer[256] 	lookupTimeSig:mean 	1.3545454545455
scalar Network.dyn_peer[256] 	lookupStabilitySig:mean 	0.86945176895031
scalar Network.dyn_peer[256] 	lookupHopsSig:mean 	12.636363636364
scalar Network.dyn_peer[257] 	lookupTimeSig:mean 	2.35
scalar Network.dyn_peer[257] 	lookupStabilitySig:mean 	0.9169542856204
scalar Network.dyn_peer[257] 	lookupHopsSig:mean 	22.666666666667
scalar Network.dyn_peer[258] 	lookupTimeSig:mean 	1.8833333333333
scalar Network.dyn_peer[258] 	lookupStabilitySig:mean 	0.91520721403261
scalar Network.dyn_peer[258] 	lookupHopsSig:mean 	18
scalar Network.dyn_peer[259] 	lookupTimeSig:mean 	2.03
scalar Network.dyn_peer[259] 	lookupStabilitySig:mean 	0.87528691943735
scalar Network.dyn_peer[259] 	lookupHopsSig:mean 	19.4
scalar Network.dyn_peer[260] 	lookupTimeSig:mean 	1.96
scalar Network.dyn_peer[260] 	lookupStabilitySig:mean 	0.89105639588088
scalar Network.dyn_peer[260] 	lookupHopsSig:mean 	18.8
scalar Network.dyn_peer[261] 	lookupTimeSig:mean 	2.3375
scalar Network.dyn_peer[261] 	lookupStabilitySig:mean 	0.93973584962077
scalar Network.dyn_peer[261] 	lookupHopsSig:mean 	22.5
scalar Network.dyn_peer[262] 	lookupTimeSig:mean 	1.5666666666667
scalar Network.dyn_peer[262] 	lookupStabilitySig:mean 	0.41234347224236
scalar Network.dyn_peer[262] 	lookupHopsSig:mean 	15
scalar Network.dyn_peer[263] 	lookupTimeSig:mean 	3.325
scalar Network.dyn_peer[263] 	lookupStabilitySig:mean 	0.91148610739037
scalar Network.dyn_peer[263] 	lookupHopsSig:mean 	32.5
scalar Network.dyn_peer[264] 	lookupTimeSig:mean 	1.3538461538462
scalar Network.dyn_peer[264] 	lookupStabilitySig:mean 	0.87016235428074
scalar Network.dyn_peer[264] 	lookupHopsSig:mean 	12.615384615385
scalar Network.dyn_peer[265] 	lookupTimeSig:mean 	1.0933333333333
scalar Network.dyn_peer[265] 	lookupStabilitySig:mean 	0.8618791818774
scalar Network.dyn_peer[265] 	lookupHopsSig:mean 	10
scalar Network.dyn_peer[266] 	lookupTimeSig:mean 	3.3666666666667
scalar Network.dyn_peer[266] 	lookupStabilitySig:mean 	0.44279496868451
scalar Network.dyn_peer[266] 	lookupHopsSig:mean 	33
scalar Network.dyn_peer[267] 	lookupTimeSig:mean 	1.93
scalar Network.dyn_peer[267] 	lookupStabilitySig:mean 	0.94715665467083
scalar Network.dyn_peer[267] 	lookupHopsSig:mean 	18.4
scalar Network.dyn_peer[268] 	lookupTimeSig:mean 	1.55
scalar Network.dyn_peer[268] 	lookupStabilitySig:mean 	0.68360371453067
scalar Network.dyn_peer[268] 	lookupHopsSig:mean 	14.666666666667
scalar Network.dyn_peer[269] 	lookupTimeSig:mean 	3.1333333333333
scalar Network.dyn_peer[269] 	lookupStabilitySig:mean 	0.51267605026563
scalar Network.dyn_peer[269] 	lookupHopsSig:mean 	30.666666666667
scalar Network.dyn_peer[270] 	lookupTimeSig:mean 	2.73
scalar Network.dyn_peer[270] 	lookupStabilitySig:mean 	0.95765977110714
scalar Network.dyn_peer[270] 	lookupHopsSig:mean 	26.4
scalar Network.dyn_peer[271] 	lookupTimeSig:mean 	4.6
scalar Network.dyn_peer[271] 	lookupStabilitySig:mean 	0.55952379852533
scalar Network.dyn_peer[271] 	lookupHopsSig:mean 	45.5
scalar Network.dyn_peer[272] 	lookupTimeSig:mean 	2.4
scalar Network.dyn_peer[272] 	lookupStabilitySig:mean 	0.78683586372063
scalar Network.dyn_peer[272] 	lookupHopsSig:mean 	23.25
scalar Network.dyn_peer[273] 	lookupTimeSig:mean 	1.9
scalar Network.dyn_peer[273] 	lookupStabilitySig:mean 	0.92391548538581
scalar Network.dyn_peer[273] 	lookupHopsSig:mean 	18.125
scalar Network.dyn_peer[274] 	lookupTimeSig:mean 	1.5625
scalar Network.dyn_peer[274] 	lookupStabilitySig:mean 	0.94256974401651
scalar Network.dyn_peer[274] 	lookupHopsSig:mean 	14.75
scalar Network.dyn_peer[275] 	lookupTimeSig:mean 	2.0285714285714
scalar Network.dyn_peer[275] 	lookupStabilitySig:mean 	0.94774006826005
scalar Network.dyn_peer[275] 	lookupHopsSig:mean 	19.428571428571
scalar Network.dyn_peer[276] 	lookupTimeSig:mean 	1.14
scalar Network.dyn_peer[276] 	lookupStabilitySig:mean 	0.64581757336855
scalar Network.dyn_peer[276] 	lookupHopsSig:mean 	10.6
scalar Network.dyn_peer[277] 	lookupTimeSig:mean 	3.35
scalar Network.dyn_peer[277] 	lookupStabilitySig:mean 	0.92029812124868
scalar Network.dyn_peer[277] 	lookupHopsSig:mean 	32.666666666667
scalar Network.dyn_peer[278] 	lookupTimeSig:mean 	1.3125
scalar Network.dyn_peer[278] 	lookupStabilitySig:mean 	0.93753341061529
scalar Network.dyn_peer[278] 	lookupHopsSig:mean 	12.25
scalar Network.dyn_peer[279] 	lookupTimeSig:mean 	2.575
scalar Network.dyn_peer[279] 	lookupStabilitySig:mean 	0.57038065418601
scalar Network.dyn_peer[279] 	lookupHopsSig:mean 	25
scalar Network.dyn_peer[280] 	lookupTimeSig:mean 	2.0111111111111
scalar Network.dyn_peer[280] 	lookupStabilitySig:mean 	0.89564905503196
scalar Network.dyn_peer[280] 	lookupHopsSig:mean 	19.222222222222
scalar Network.dyn_peer[281] 	lookupTimeSig:mean 	1.05
scalar Network.dyn_peer[281] 	lookupStabilitySig:mean 	0.65233085677028
scalar Network.dyn_peer[281] 	lookupHopsSig:mean 	9.75
scalar Network.dyn_peer[282] 	lookupTimeSig:mean 	1.175
scalar Network.dyn_peer[282] 	lookupStabilitySig:mean 	0.75295040942729
scalar Network.dyn_peer[282] 	lookupHopsSig:mean 	11
scalar Network.dyn_peer[283] 	lookupTimeSig:mean 	1.3888888888889
scalar Network.dyn_peer[283] 	lookupStabilitySig:mean 	0.80577775028845
scalar Network.dyn_peer[283] 	lookupHopsSig:mean 	13
scalar Network.dyn_peer[284] 	lookupTimeSig:mean 	1.3
scalar Network.dyn_peer[284] 	lookupStabilitySig:mean 	0.70441595340768
scalar Network.dyn_peer[284] 	lookupHopsSig:mean 	12.333333333333
scalar Network.dyn_peer[285] 	lookupTimeSig:mean 	1.2666666666667
scalar Network.dyn_peer[285] 	lookupStabilitySig:mean 	0.9356523781187
scalar Network.dyn_peer[285] 	lookupHopsSig:mean 	11.777777777778
scalar Network.dyn_peer[286] 	lookupTimeSig:mean 	1.6875
scalar Network.dyn_peer[286] 	lookupStabilitySig:mean 	0.84672540181782
scalar Network.dyn_peer[286] 	lookupHopsSig:mean 	16
scalar Network.dyn_peer[287] 	lookupTimeSig:mean 	2.2
scalar Network.dyn_peer[287] 	lookupStabilitySig:mean 	0.65188169106841
scalar Network.dyn_peer[287] 	lookupHopsSig:mean 	21.166666666667
scalar Network.dyn_peer[288] 	lookupTimeSig:mean 	1.22
scalar Network.dyn_peer[288] 	lookupStabilitySig:mean 	0.71711429469287
scalar Network.dyn_peer[288] 	lookupHopsSig:mean 	11.4
scalar Network.dyn_peer[289] 	lookupTimeSig:mean 	1.62
scalar Network.dyn_peer[289] 	lookupStabilitySig:mean 	0.79185037314892
scalar Network.dyn_peer[289] 	lookupHopsSig:mean 	15.4
scalar Network.dyn_peer[290] 	lookupTimeSig:mean 	1.7777777777778
scalar Network.dyn_peer[290] 	lookupStabilitySig:mean 	0.86397246799121
scalar Network.dyn_peer[290] 	lookupHopsSig:mean 	16.888888888889
scalar Network.dyn_peer[291] 	lookupTimeSig:mean 	2.95
scalar Network.dyn_peer[291] 	lookupStabilitySig:mean 	0.89970054058358
scalar Network.dyn_peer[291] 	lookupHopsSig:mean 	28.75
scalar Network.dyn_peer[292] 	lookupTimeSig:mean 	2.7
scalar Network.dyn_peer[292] 	lookupStabilitySig:mean 	0.44764276345571
scalar Network.dyn_peer[292] 	lookupHopsSig:mean 	26.333333333333
scalar Network.dyn_peer[293] 	lookupTimeSig:mean 	3.05
scalar Network.dyn_peer[293] 	lookupStabilitySig:mean 	0.92972989287227
scalar Network.dyn_peer[293] 	lookupHopsSig:mean 	29.666666666667
scalar Network.dyn_peer[294] 	lookupTimeSig:mean 	2.3714285714286
scalar Network.dyn_peer[294] 	lookupStabilitySig:mean 	0.92351463916046
scalar Network.dyn_peer[294] 	lookupHopsSig:mean 	22.857142857143
scalar Network.dyn_peer[295] 	lookupTimeSig:mean 	1.76
scalar Network.dyn_peer[295] 	lookupStabilitySig:mean 	0.80620141550899
scalar Network.dyn_peer[295] 	lookupHopsSig:mean 	16.8
scalar Network.dyn_peer[296] 	lookupTimeSig:mean 	1.575
scalar Network.dyn_peer[296] 	lookupStabilitySig:mean 	0.70154435560107
scalar Network.dyn_peer[296] 	lookupHopsSig:mean 	15
scalar Network.dyn_peer[297] 	lookupTimeSig:mean 	2.4
scalar Network.dyn_peer[297] 	lookupStabilitySig:mean 	0.95374898950104
scalar Network.dyn_peer[297] 	lookupHopsSig:mean 	23.125
scalar Network.dyn_peer[298] 	lookupTimeSig:mean 	1.8545454545455
scalar Network.dyn_peer[298] 	lookupStabilitySig:mean 	0.84759677087211
scalar Network.dyn_peer[298] 	lookupHopsSig:mean 	17.636363636364
scalar Network.dyn_peer[299] 	lookupTimeSig:mean 	2.3
scalar Network.dyn_peer[299] 	lookupStabilitySig:mean 	0.9462789381699
scalar Network.dyn_peer[299] 	lookupHopsSig:mean 	22.083333333333
scalar Network.dyn_peer[300] 	lookupTimeSig:mean 	1.6444444444444
scalar Network.dyn_peer[300] 	lookupStabilitySig:mean 	0.82653780654073
scalar Network.dyn_peer[300] 	lookupHopsSig:mean 	15.555555555556
scalar Network.dyn_peer[301] 	lookupTimeSig:mean 	1.9666666666667
scalar Network.dyn_peer[301] 	lookupStabilitySig:mean 	0.95470754170997
scalar Network.dyn_peer[301] 	lookupHopsSig:mean 	18.777777777778
scalar Network.dyn_peer[302] 	lookupTimeSig:mean 	1.0666666666667
scalar Network.dyn_peer[302] 	lookupStabilitySig:mean 	0.49963924537102
scalar Network.dyn_peer[302] 	lookupHopsSig:mean 	10
scalar Network.dyn_peer[303] 	lookupTimeSig:mean 	1.6
scalar Network.dyn_peer[303] 	lookupStabilitySig:mean 	0.34147727489471
scalar Network.dyn_peer[303] 	lookupHopsSig:mean 	15.5
scalar Network.dyn_peer[304] 	lookupTimeSig:mean 	2.4
scalar Network.dyn_peer[304] 	lookupStabilitySig:mean 	0.62925882637501
scalar Network.dyn_peer[304] 	lookupHopsSig:mean 	23.333333333333
scalar Network.dyn_peer[305] 	lookupTimeSig:mean 	2.06
scalar Network.dyn_peer[305] 	lookupStabilitySig:mean 	0.66935978457332
scalar Network.dyn_peer[305] 	lookupHopsSig:mean 	19.8
scalar Network.dyn_peer[306] 	lookupTimeSig:mean 	2.4
scalar Network.dyn_peer[306] 	lookupStabilitySig:mean 	0.93020809842274
scalar Network.dyn_peer[306] 	lookupHopsSig:mean 	23.2
scalar Network.dyn_peer[307] 	lookupTimeSig:mean 	2.075
scalar Network.dyn_peer[307] 	lookupStabilitySig:mean 	0.87648310372606
scalar Network.dyn_peer[307] 	lookupHopsSig:mean 	20
scalar Network.dyn_peer[308] 	lookupTimeSig:mean 	2.2888888888889
scalar Network.dyn_peer[308] 	lookupStabilitySig:mean 	0.84291048363472
scalar Network.dyn_peer[308] 	lookupHopsSig:mean 	22
scalar Network.dyn_peer[309] 	lookupTimeSig:mean 	1.1
scalar Network.dyn_peer[309] 	lookupStabilitySig:mean 	0.80606487765908
scalar Network.dyn_peer[309] 	lookupHopsSig:mean 	10.2
scalar Network.dyn_peer[310] 	lookupTimeSig:mean 	2.7428571428571
scalar Network.dyn_peer[310] 	lookupStabilitySig:mean 	0.93684844513025
scalar Network.dyn_peer[310] 	lookupHopsSig:mean 	26.571428571429
scalar Network.dyn_peer[311] 	lookupTimeSig:mean 	1.2444444444444
scalar Network.dyn_peer[311] 	lookupStabilitySig:mean 	0.89761187125825
scalar Network.dyn_peer[311] 	lookupHopsSig:mean 	11.555555555556
scalar Network.dyn_peer[312] 	lookupTimeSig:mean 	2.5
scalar Network.dyn_peer[312] 	lookupStabilitySig:mean 	0.96108673838899
scalar Network.dyn_peer[312] 	lookupHopsSig:mean 	24.125
scalar Network.dyn_peer[313] 	lookupTimeSig:mean 	1.6666666666667
scalar Network.dyn_peer[313] 	lookupStabilitySig:mean 	0.49136294176181
scalar Network.dyn_peer[313] 	lookupHopsSig:mean 	16
scalar Network.dyn_peer[314] 	lookupTimeSig:mean 	2.2
scalar Network.dyn_peer[314] 	lookupStabilitySig:mean 	0.41861515740554
scalar Network.dyn_peer[314] 	lookupHopsSig:mean 	21.333333333333
scalar Network.dyn_peer[315] 	lookupTimeSig:mean 	0.96
scalar Network.dyn_peer[315] 	lookupStabilitySig:mean 	0.64655068591237
scalar Network.dyn_peer[315] 	lookupHopsSig:mean 	8.8
scalar Network.dyn_peer[316] 	lookupTimeSig:mean 	2.1857142857143
scalar Network.dyn_peer[316] 	lookupStabilitySig:mean 	0.93588683501418
scalar Network.dyn_peer[316] 	lookupHopsSig:mean 	21
scalar Network.dyn_peer[317] 	lookupTimeSig:mean 	2.1285714285714
scalar Network.dyn_peer[317] 	lookupStabilitySig:mean 	0.88760686439595
scalar Network.dyn_peer[317] 	lookupHopsSig:mean 	20.428571428571
scalar Network.dyn_peer[318] 	lookupTimeSig:mean 	1.25
scalar Network.dyn_peer[318] 	lookupStabilitySig:mean 	0.71082788286731
scalar Network.dyn_peer[318] 	lookupHopsSig:mean 	11.75
scalar Network.dyn_peer[319] 	lookupTimeSig:mean 	1.7666666666667
scalar Network.dyn_peer[319] 	lookupStabilitySig:mean 	0.53133481492599
scalar Network.dyn_peer[319] 	lookupHopsSig:mean 	17
scalar Network.dyn_peer[320] 	lookupTimeSig:mean 	2.1
scalar Network.dyn_peer[320] 	lookupStabilitySig:mean 	0.78658008575439
scalar Network.dyn_peer[320] 	lookupHopsSig:mean 	20.333333333333
scalar Network.dyn_peer[321] 	lookupTimeSig:mean 	0.9
scalar Network.dyn_peer[321] 	lookupStabilitySig:mean 	0.67764495220035
scalar Network.dyn_peer[321] 	lookupHopsSig:mean 	8.25
scalar Network.dyn_peer[322] 	lookupTimeSig:mean 	1.3875
scalar Network.dyn_peer[322] 	lookupStabilitySig:mean 	0.8805121225887
scalar Network.dyn_peer[322] 	lookupHopsSig:mean 	13
scalar Network.dyn_peer[323] 	lookupTimeSig:mean 	2.7
scalar Network.dyn_peer[323] 	lookupStabilitySig:mean 	0.95386639599585
scalar Network.dyn_peer[323] 	lookupHopsSig:mean 	26.111111111111
scalar Network.dyn_peer[324] 	lookupTimeSig:mean 	2.3
scalar Network.dyn_peer[324] 	lookupStabilitySig:mean 	0.26466669142246
scalar Network.dyn_peer[324] 	lookupHopsSig:mean 	22.5
scalar Network.dyn_peer[325] 	lookupTimeSig:mean 	2.2428571428571
scalar Network.dyn_peer[325] 	lookupStabilitySig:mean 	0.94685626735112
scalar Network.dyn_peer[325] 	lookupHopsSig:mean 	21.571428571429
scalar Network.dyn_peer[326] 	lookupTimeSig:mean 	2.1714285714286
scalar Network.dyn_peer[326] 	lookupStabilitySig:mean 	0.92228567028152
scalar Network.dyn_peer[326] 	lookupHopsSig:mean 	20.857142857143
scalar Network.dyn_peer[327] 	lookupTimeSig:mean 	5.9333333333333
scalar Network.dyn_peer[327] 	lookupStabilitySig:mean 	0.87126449868083
scalar Network.dyn_peer[327] 	lookupHopsSig:mean 	58.666666666667
scalar Network.dyn_peer[328] 	lookupTimeSig:mean 	3.92
scalar Network.dyn_peer[328] 	lookupStabilitySig:mean 	0.93640268715098
scalar Network.dyn_peer[328] 	lookupHopsSig:mean 	38.4
scalar Network.dyn_peer[329] 	lookupTimeSig:mean 	2.8
scalar Network.dyn_peer[329] 	lookupStabilitySig:mean 	0.28407000005245
scalar Network.dyn_peer[329] 	lookupHopsSig:mean 	27.5
scalar Network.dyn_peer[330] 	lookupTimeSig:mean 	2.02
scalar Network.dyn_peer[330] 	lookupStabilitySig:mean 	0.93596394062042
scalar Network.dyn_peer[330] 	lookupHopsSig:mean 	19.3
scalar Network.dyn_peer[331] 	lookupTimeSig:mean 	1.6285714285714
scalar Network.dyn_peer[331] 	lookupStabilitySig:mean 	0.85762104352138
scalar Network.dyn_peer[331] 	lookupHopsSig:mean 	15.428571428571
scalar Network.dyn_peer[332] 	lookupTimeSig:mean 	3.175
scalar Network.dyn_peer[332] 	lookupStabilitySig:mean 	0.92292310018092
scalar Network.dyn_peer[332] 	lookupHopsSig:mean 	31
scalar Network.dyn_peer[333] 	lookupTimeSig:mean 	3.3666666666667
scalar Network.dyn_peer[333] 	lookupStabilitySig:mean 	0.87598988413811
scalar Network.dyn_peer[333] 	lookupHopsSig:mean 	33
scalar Network.dyn_peer[334] 	lookupTimeSig:mean 	1.65
scalar Network.dyn_peer[334] 	lookupStabilitySig:mean 	0.95786881768921
scalar Network.dyn_peer[334] 	lookupHopsSig:mean 	15.583333333333
scalar Network.dyn_peer[335] 	lookupTimeSig:mean 	1.51
scalar Network.dyn_peer[335] 	lookupStabilitySig:mean 	0.91066066592466
scalar Network.dyn_peer[335] 	lookupHopsSig:mean 	14.2
scalar Network.dyn_peer[336] 	lookupTimeSig:mean 	1.2333333333333
scalar Network.dyn_peer[336] 	lookupStabilitySig:mean 	0.68110509589314
scalar Network.dyn_peer[336] 	lookupHopsSig:mean 	11.666666666667
scalar Network.dyn_peer[337] 	lookupTimeSig:mean 	4.6
scalar Network.dyn_peer[337] 	lookupStabilitySig:mean 	0.72721578925848
scalar Network.dyn_peer[337] 	lookupHopsSig:mean 	45.5
scalar Network.dyn_peer[338] 	lookupTimeSig:mean 	1.9333333333333
scalar Network.dyn_peer[338] 	lookupStabilitySig:mean 	0.95429734068198
scalar Network.dyn_peer[338] 	lookupHopsSig:mean 	18.444444444444
scalar Network.dyn_peer[339] 	lookupTimeSig:mean 	1.5857142857143
scalar Network.dyn_peer[339] 	lookupStabilitySig:mean 	0.8434538670616
scalar Network.dyn_peer[339] 	lookupHopsSig:mean 	15
scalar Network.dyn_peer[340] 	lookupTimeSig:mean 	1.5833333333333
scalar Network.dyn_peer[340] 	lookupStabilitySig:mean 	0.81927712075412
scalar Network.dyn_peer[340] 	lookupHopsSig:mean 	15
scalar Network.dyn_peer[341] 	lookupTimeSig:mean 	3.8333333333333
scalar Network.dyn_peer[341] 	lookupStabilitySig:mean 	0.80399102717638
scalar Network.dyn_peer[341] 	lookupHopsSig:mean 	37.666666666667
scalar Network.dyn_peer[342] 	lookupTimeSig:mean 	1.5615384615385
scalar Network.dyn_peer[342] 	lookupStabilitySig:mean 	0.96774223873105
scalar Network.dyn_peer[342] 	lookupHopsSig:mean 	14.692307692308
scalar Network.dyn_peer[343] 	lookupTimeSig:mean 	2.1384615384615
scalar Network.dyn_peer[343] 	lookupStabilitySig:mean 	0.95947772006576
scalar Network.dyn_peer[343] 	lookupHopsSig:mean 	20.461538461538
scalar Network.dyn_peer[344] 	lookupTimeSig:mean 	2.45
scalar Network.dyn_peer[344] 	lookupStabilitySig:mean 	0.78497640167673
scalar Network.dyn_peer[344] 	lookupHopsSig:mean 	23.666666666667
scalar Network.dyn_peer[345] 	lookupTimeSig:mean 	1.4444444444444
scalar Network.dyn_peer[345] 	lookupStabilitySig:mean 	0.82432673607642
scalar Network.dyn_peer[345] 	lookupHopsSig:mean 	13.555555555556
scalar Network.dyn_peer[346] 	lookupTimeSig:mean 	1.25
scalar Network.dyn_peer[346] 	lookupStabilitySig:mean 	0.47683240287006
scalar Network.dyn_peer[346] 	lookupHopsSig:mean 	11.75
scalar Network.dyn_peer[347] 	lookupTimeSig:mean 	1.5666666666667
scalar Network.dyn_peer[347] 	lookupStabilitySig:mean 	0.87579478090629
scalar Network.dyn_peer[347] 	lookupHopsSig:mean 	14.833333333333
scalar Network.dyn_peer[348] 	lookupTimeSig:mean 	1.7785714285714
scalar Network.dyn_peer[348] 	lookupStabilitySig:mean 	0.96512397082656
scalar Network.dyn_peer[348] 	lookupHopsSig:mean 	16.857142857143
scalar Network.dyn_peer[349] 	lookupTimeSig:mean 	2.12
scalar Network.dyn_peer[349] 	lookupStabilitySig:mean 	0.89000874049962
scalar Network.dyn_peer[349] 	lookupHopsSig:mean 	20.4
scalar Network.dyn_peer[350] 	lookupTimeSig:mean 	1.2222222222222
scalar Network.dyn_peer[350] 	lookupStabilitySig:mean 	0.91654921390323
scalar Network.dyn_peer[350] 	lookupHopsSig:mean 	11.333333333333
scalar Network.dyn_peer[351] 	lookupTimeSig:mean 	1.4571428571429
scalar Network.dyn_peer[351] 	lookupStabilitySig:mean 	0.91315882786044
scalar Network.dyn_peer[351] 	lookupHopsSig:mean 	13.714285714286
scalar Network.dyn_peer[352] 	lookupTimeSig:mean 	1.8
scalar Network.dyn_peer[352] 	lookupStabilitySig:mean 	0.82144031748176
scalar Network.dyn_peer[352] 	lookupHopsSig:mean 	17.2
scalar Network.dyn_peer[353] 	lookupTimeSig:mean 	3.6333333333333
scalar Network.dyn_peer[353] 	lookupStabilitySig:mean 	0.51515151063601
scalar Network.dyn_peer[353] 	lookupHopsSig:mean 	35.666666666667
scalar Network.dyn_peer[354] 	lookupTimeSig:mean 	1.18
scalar Network.dyn_peer[354] 	lookupStabilitySig:mean 	0.80174748077989
scalar Network.dyn_peer[354] 	lookupHopsSig:mean 	11
scalar Network.dyn_peer[355] 	lookupTimeSig:mean 	1.9636363636364
scalar Network.dyn_peer[355] 	lookupStabilitySig:mean 	0.95519396793944
scalar Network.dyn_peer[355] 	lookupHopsSig:mean 	18.727272727273
scalar Network.dyn_peer[356] 	lookupTimeSig:mean 	2.825
scalar Network.dyn_peer[356] 	lookupStabilitySig:mean 	0.89117654133588
scalar Network.dyn_peer[356] 	lookupHopsSig:mean 	27.5
scalar Network.dyn_peer[357] 	lookupTimeSig:mean 	1.4
scalar Network.dyn_peer[357] 	lookupStabilitySig:mean 	0.92892843317532
scalar Network.dyn_peer[357] 	lookupHopsSig:mean 	13.125
scalar Network.dyn_peer[358] 	lookupTimeSig:mean 	2
scalar Network.dyn_peer[358] 	lookupStabilitySig:mean 	0.54616403331359
scalar Network.dyn_peer[358] 	lookupHopsSig:mean 	19.333333333333
scalar Network.dyn_peer[359] 	lookupTimeSig:mean 	1.53
scalar Network.dyn_peer[359] 	lookupStabilitySig:mean 	0.81584566172678
scalar Network.dyn_peer[359] 	lookupHopsSig:mean 	14.4
scalar Network.dyn_peer[360] 	lookupTimeSig:mean 	2.4
scalar Network.dyn_peer[360] 	lookupStabilitySig:mean 	0.84893896188587
scalar Network.dyn_peer[360] 	lookupHopsSig:mean 	23.2
scalar Network.dyn_peer[361] 	lookupTimeSig:mean 	3.05
scalar Network.dyn_peer[361] 	lookupStabilitySig:mean 	0.87806861195713
scalar Network.dyn_peer[361] 	lookupHopsSig:mean 	29.75
scalar Network.dyn_peer[362] 	lookupTimeSig:mean 	2.0428571428571
scalar Network.dyn_peer[362] 	lookupStabilitySig:mean 	0.94099212171776
scalar Network.dyn_peer[362] 	lookupHopsSig:mean 	19.571428571429
scalar Network.dyn_peer[363] 	lookupTimeSig:mean 	1.85
scalar Network.dyn_peer[363] 	lookupStabilitySig:mean 	0.84794763464015
scalar Network.dyn_peer[363] 	lookupHopsSig:mean 	17.583333333333
scalar Network.dyn_peer[364] 	lookupTimeSig:mean 	2.4
scalar Network.dyn_peer[364] 	lookupStabilitySig:mean 	0.91640040390193
scalar Network.dyn_peer[364] 	lookupHopsSig:mean 	23.2
scalar Network.dyn_peer[365] 	lookupTimeSig:mean 	1.4
scalar Network.dyn_peer[365] 	lookupStabilitySig:mean 	0.87086589067158
scalar Network.dyn_peer[365] 	lookupHopsSig:mean 	13.090909090909
scalar Network.dyn_peer[366] 	lookupTimeSig:mean 	1.5428571428571
scalar Network.dyn_peer[366] 	lookupStabilitySig:mean 	0.85697273896741
scalar Network.dyn_peer[366] 	lookupHopsSig:mean 	14.571428571429
scalar Network.dyn_peer[367] 	lookupTimeSig:mean 	1.6
scalar Network.dyn_peer[367] 	lookupStabilitySig:mean 	0.5197988152504
scalar Network.dyn_peer[367] 	lookupHopsSig:mean 	15.333333333333
scalar Network.dyn_peer[368] 	lookupTimeSig:mean 	0.95
scalar Network.dyn_peer[368] 	lookupStabilitySig:mean 	0.68008564226329
scalar Network.dyn_peer[368] 	lookupHopsSig:mean 	8.75
scalar Network.dyn_peer[369] 	lookupTimeSig:mean 	1.8916666666667
scalar Network.dyn_peer[369] 	lookupStabilitySig:mean 	0.94941497469942
scalar Network.dyn_peer[369] 	lookupHopsSig:mean 	18
scalar Network.dyn_peer[370] 	lookupTimeSig:mean 	2.1285714285714
scalar Network.dyn_peer[370] 	lookupStabilitySig:mean 	0.79173389263451
scalar Network.dyn_peer[370] 	lookupHopsSig:mean 	20.428571428571
scalar Network.dyn_peer[371] 	lookupTimeSig:mean 	2.6857142857143
scalar Network.dyn_peer[371] 	lookupStabilitySig:mean 	0.86859335164939
scalar Network.dyn_peer[371] 	lookupHopsSig:mean 	26
scalar Network.dyn_peer[372] 	lookupTimeSig:mean 	3.55
scalar Network.dyn_peer[372] 	lookupStabilitySig:mean 	0.76729597896338
scalar Network.dyn_peer[372] 	lookupHopsSig:mean 	35
scalar Network.dyn_peer[373] 	lookupTimeSig:mean 	2.6857142857143
scalar Network.dyn_peer[373] 	lookupStabilitySig:mean 	0.94405765591988
scalar Network.dyn_peer[373] 	lookupHopsSig:mean 	26
scalar Network.dyn_peer[374] 	lookupTimeSig:mean 	4.15
scalar Network.dyn_peer[374] 	lookupStabilitySig:mean 	0.77704324945807
scalar Network.dyn_peer[374] 	lookupHopsSig:mean 	41
scalar Network.dyn_peer[375] 	lookupTimeSig:mean 	1.6
scalar Network.dyn_peer[375] 	lookupStabilitySig:mean 	0.85230700578541
scalar Network.dyn_peer[375] 	lookupHopsSig:mean 	15.25
scalar Network.dyn_peer[376] 	lookupTimeSig:mean 	2.2846153846154
scalar Network.dyn_peer[376] 	lookupStabilitySig:mean 	0.96486224062168
scalar Network.dyn_peer[376] 	lookupHopsSig:mean 	21.923076923077
scalar Network.dyn_peer[377] 	lookupTimeSig:mean 	1.3142857142857
scalar Network.dyn_peer[377] 	lookupStabilitySig:mean 	0.8688433786322
scalar Network.dyn_peer[377] 	lookupHopsSig:mean 	12.285714285714
scalar Network.dyn_peer[378] 	lookupTimeSig:mean 	2.025
scalar Network.dyn_peer[378] 	lookupStabilitySig:mean 	0.57252440974116
scalar Network.dyn_peer[378] 	lookupHopsSig:mean 	19.5
scalar Network.dyn_peer[379] 	lookupTimeSig:mean 	2.275
scalar Network.dyn_peer[379] 	lookupStabilitySig:mean 	0.89576993556693
scalar Network.dyn_peer[379] 	lookupHopsSig:mean 	22
scalar Network.dyn_peer[380] 	lookupTimeSig:mean 	1.53125
scalar Network.dyn_peer[380] 	lookupStabilitySig:mean 	0.96572465306963
scalar Network.dyn_peer[380] 	lookupHopsSig:mean 	14.375
scalar Network.dyn_peer[381] 	lookupTimeSig:mean 	1.4
scalar Network.dyn_peer[381] 	lookupStabilitySig:mean 	0.92083233653998
scalar Network.dyn_peer[381] 	lookupHopsSig:mean 	13.076923076923
scalar Network.dyn_peer[382] 	lookupTimeSig:mean 	1
scalar Network.dyn_peer[382] 	lookupStabilitySig:mean 	0.92146235317341
scalar Network.dyn_peer[382] 	lookupHopsSig:mean 	9.125
scalar Network.dyn_peer[383] 	lookupTimeSig:mean 	1.6428571428571
scalar Network.dyn_peer[383] 	lookupStabilitySig:mean 	0.90032919988568
scalar Network.dyn_peer[383] 	lookupHopsSig:mean 	15.571428571429
scalar Network.dyn_peer[384] 	lookupTimeSig:mean 	2.16
scalar Network.dyn_peer[384] 	lookupStabilitySig:mean 	0.8507963610813
scalar Network.dyn_peer[384] 	lookupHopsSig:mean 	20.8
scalar Network.dyn_peer[385] 	lookupTimeSig:mean 	1.925
scalar Network.dyn_peer[385] 	lookupStabilitySig:mean 	0.85321781458333
scalar Network.dyn_peer[385] 	lookupHopsSig:mean 	18.375
scalar Network.dyn_peer[386] 	lookupTimeSig:mean 	1.52
scalar Network.dyn_peer[386] 	lookupStabilitySig:mean 	0.89047171287239
scalar Network.dyn_peer[386] 	lookupHopsSig:mean 	14.4
scalar Network.dyn_peer[387] 	lookupTimeSig:mean 	4.1666666666667
scalar Network.dyn_peer[387] 	lookupStabilitySig:mean 	0.74519862234592
scalar Network.dyn_peer[387] 	lookupHopsSig:mean 	41
scalar Network.dyn_peer[388] 	lookupTimeSig:mean 	2.0428571428571
scalar Network.dyn_peer[388] 	lookupStabilitySig:mean 	0.88284174259752
scalar Network.dyn_peer[388] 	lookupHopsSig:mean 	19.571428571429
scalar Network.dyn_peer[389] 	lookupTimeSig:mean 	1.7333333333333
scalar Network.dyn_peer[389] 	lookupStabilitySig:mean 	0.91016437578946
scalar Network.dyn_peer[389] 	lookupHopsSig:mean 	16.5
scalar Network.dyn_peer[390] 	lookupTimeSig:mean 	1.7444444444444
scalar Network.dyn_peer[390] 	lookupStabilitySig:mean 	0.91145755692075
scalar Network.dyn_peer[390] 	lookupHopsSig:mean 	16.555555555556
scalar Network.dyn_peer[391] 	lookupTimeSig:mean 	2.475
scalar Network.dyn_peer[391] 	lookupStabilitySig:mean 	0.85428732167929
scalar Network.dyn_peer[391] 	lookupHopsSig:mean 	24
scalar Network.dyn_peer[392] 	lookupTimeSig:mean 	1.5125
scalar Network.dyn_peer[392] 	lookupStabilitySig:mean 	0.89466657926096
scalar Network.dyn_peer[392] 	lookupHopsSig:mean 	14.25
scalar Network.dyn_peer[393] 	lookupTimeSig:mean 	5.55
scalar Network.dyn_peer[393] 	lookupStabilitySig:mean 	0.81618513539433
scalar Network.dyn_peer[393] 	lookupHopsSig:mean 	55
scalar Network.dyn_peer[394] 	lookupTimeSig:mean 	1.9875
scalar Network.dyn_peer[394] 	lookupStabilitySig:mean 	0.89482615163433
scalar Network.dyn_peer[394] 	lookupHopsSig:mean 	19
scalar Network.dyn_peer[395] 	lookupTimeSig:mean 	1.4
scalar Network.dyn_peer[395] 	lookupStabilitySig:mean 	0.49957391619682
scalar Network.dyn_peer[395] 	lookupHopsSig:mean 	13.333333333333
scalar Network.dyn_peer[396] 	lookupTimeSig:mean 	0.88571428571429
scalar Network.dyn_peer[396] 	lookupStabilitySig:mean 	0.75075091182121
scalar Network.dyn_peer[396] 	lookupHopsSig:mean 	8
scalar Network.dyn_peer[397] 	lookupTimeSig:mean 	2.125
scalar Network.dyn_peer[397] 	lookupStabilitySig:mean 	0.90094827173743
scalar Network.dyn_peer[397] 	lookupHopsSig:mean 	20.375
scalar Network.dyn_peer[398] 	lookupTimeSig:mean 	1.9071428571429
scalar Network.dyn_peer[398] 	lookupStabilitySig:mean 	0.96251969046092
scalar Network.dyn_peer[398] 	lookupHopsSig:mean 	18.142857142857
scalar Network.dyn_peer[399] 	lookupTimeSig:mean 	1.9
scalar Network.dyn_peer[399] 	lookupStabilitySig:mean 	0.78245464960734
scalar Network.dyn_peer[399] 	lookupHopsSig:mean 	18.333333333333
scalar Network.dyn_peer[400] 	lookupTimeSig:mean 	1.9111111111111
scalar Network.dyn_peer[400] 	lookupStabilitySig:mean 	0.84848542966776
scalar Network.dyn_peer[400] 	lookupHopsSig:mean 	18.222222222222
scalar Network.dyn_peer[401] 	lookupTimeSig:mean 	1.6166666666667
scalar Network.dyn_peer[401] 	lookupStabilitySig:mean 	0.90997146050601
scalar Network.dyn_peer[401] 	lookupHopsSig:mean 	15.25
scalar Network.dyn_peer[402] 	lookupTimeSig:mean 	1.9769230769231
scalar Network.dyn_peer[402] 	lookupStabilitySig:mean 	0.92865371693356
scalar Network.dyn_peer[402] 	lookupHopsSig:mean 	18.846153846154
scalar Network.dyn_peer[403] 	lookupTimeSig:mean 	2.6428571428571
scalar Network.dyn_peer[403] 	lookupStabilitySig:mean 	0.95223893637636
scalar Network.dyn_peer[403] 	lookupHopsSig:mean 	25.571428571429
scalar Network.dyn_peer[404] 	lookupTimeSig:mean 	1.46
scalar Network.dyn_peer[404] 	lookupStabilitySig:mean 	0.77382870092988
scalar Network.dyn_peer[404] 	lookupHopsSig:mean 	13.8
scalar Network.dyn_peer[405] 	lookupTimeSig:mean 	1.45625
scalar Network.dyn_peer[405] 	lookupStabilitySig:mean 	0.9513745396398
scalar Network.dyn_peer[405] 	lookupHopsSig:mean 	13.625
scalar Network.dyn_peer[406] 	lookupTimeSig:mean 	1.7166666666667
scalar Network.dyn_peer[406] 	lookupStabilitySig:mean 	0.86781989534696
scalar Network.dyn_peer[406] 	lookupHopsSig:mean 	16.333333333333
scalar Network.dyn_peer[407] 	lookupTimeSig:mean 	3.3333333333333
scalar Network.dyn_peer[407] 	lookupStabilitySig:mean 	0.66981233408054
scalar Network.dyn_peer[407] 	lookupHopsSig:mean 	32.666666666667
scalar Network.dyn_peer[408] 	lookupTimeSig:mean 	1.6875
scalar Network.dyn_peer[408] 	lookupStabilitySig:mean 	0.85656151291914
scalar Network.dyn_peer[408] 	lookupHopsSig:mean 	16
scalar Network.dyn_peer[409] 	lookupTimeSig:mean 	1.9
scalar Network.dyn_peer[409] 	lookupStabilitySig:mean 	0.85722684454439
scalar Network.dyn_peer[409] 	lookupHopsSig:mean 	18.142857142857
scalar Network.dyn_peer[410] 	lookupTimeSig:mean 	2.3
scalar Network.dyn_peer[410] 	lookupStabilitySig:mean 	0.66555596292019
scalar Network.dyn_peer[410] 	lookupHopsSig:mean 	22.2
scalar Network.dyn_peer[411] 	lookupTimeSig:mean 	0.76666666666667
scalar Network.dyn_peer[411] 	lookupStabilitySig:mean 	0.44821731249491
scalar Network.dyn_peer[411] 	lookupHopsSig:mean 	7
scalar Network.dyn_peer[412] 	lookupTimeSig:mean 	2
scalar Network.dyn_peer[412] 	lookupStabilitySig:mean 	0.96677247605
scalar Network.dyn_peer[412] 	lookupHopsSig:mean 	19.076923076923
scalar Network.dyn_peer[413] 	lookupTimeSig:mean 	4.075
scalar Network.dyn_peer[413] 	lookupStabilitySig:mean 	0.90807958212099
scalar Network.dyn_peer[413] 	lookupHopsSig:mean 	40
scalar Network.dyn_peer[414] 	lookupTimeSig:mean 	2.6
scalar Network.dyn_peer[414] 	lookupStabilitySig:mean 	0.5458255323271
scalar Network.dyn_peer[414] 	lookupHopsSig:mean 	25.333333333333
scalar Network.dyn_peer[415] 	lookupTimeSig:mean 	1.84
scalar Network.dyn_peer[415] 	lookupStabilitySig:mean 	0.91228348091245
scalar Network.dyn_peer[415] 	lookupHopsSig:mean 	17.6
scalar Network.dyn_peer[416] 	lookupTimeSig:mean 	1.5857142857143
scalar Network.dyn_peer[416] 	lookupStabilitySig:mean 	0.94888735116859
scalar Network.dyn_peer[416] 	lookupHopsSig:mean 	15
scalar Network.dyn_peer[417] 	lookupTimeSig:mean 	1.1285714285714
scalar Network.dyn_peer[417] 	lookupStabilitySig:mean 	0.87507038350616
scalar Network.dyn_peer[417] 	lookupHopsSig:mean 	10.428571428571
scalar Network.dyn_peer[418] 	lookupTimeSig:mean 	1.8222222222222
scalar Network.dyn_peer[418] 	lookupStabilitySig:mean 	0.95664184757819
scalar Network.dyn_peer[418] 	lookupHopsSig:mean 	17.333333333333
scalar Network.dyn_peer[419] 	lookupTimeSig:mean 	1.8454545454545
scalar Network.dyn_peer[419] 	lookupStabilitySig:mean 	0.93876185877757
scalar Network.dyn_peer[419] 	lookupHopsSig:mean 	17.545454545455
[...]
scalar Network.dyn_peer[894] 	lookupHopsSig:mean 	11.5
scalar Network.dyn_peer[895] 	lookupTimeSig:mean 	1.5333333333333
scalar Network.dyn_peer[895] 	lookupStabilitySig:mean 	0.86009925037312
scalar Network.dyn_peer[895] 	lookupHopsSig:mean 	14.5
scalar Network.dyn_peer[896] 	lookupTimeSig:mean 	1.5
scalar Network.dyn_peer[896] 	lookupStabilitySig:mean 	0.94589668119858
scalar Network.dyn_peer[896] 	lookupHopsSig:mean 	14.142857142857
scalar Network.dyn_peer[897] 	lookupTimeSig:mean 	1.95
scalar Network.dyn_peer[897] 	lookupStabilitySig:mean 	0.89251923374832
scalar Network.dyn_peer[897] 	lookupHopsSig:mean 	18.75
scalar Network.dyn_peer[898] 	lookupTimeSig:mean 	1.5714285714286
scalar Network.dyn_peer[898] 	lookupStabilitySig:mean 	0.9462451237653
scalar Network.dyn_peer[898] 	lookupHopsSig:mean 	14.857142857143
scalar Network.dyn_peer[899] 	lookupTimeSig:mean 	3.4666666666667
scalar Network.dyn_peer[899] 	lookupStabilitySig:mean 	0.89727341880401
scalar Network.dyn_peer[899] 	lookupHopsSig:mean 	34
scalar Network.dyn_peer[900] 	lookupTimeSig:mean 	2.05
scalar Network.dyn_peer[900] 	lookupStabilitySig:mean 	0.87561908876523
scalar Network.dyn_peer[900] 	lookupHopsSig:mean 	19.75
scalar Network.dyn_peer[901] 	lookupTimeSig:mean 	1.95
scalar Network.dyn_peer[901] 	lookupStabilitySig:mean 	0.7455058991909
scalar Network.dyn_peer[901] 	lookupHopsSig:mean 	19
scalar Network.dyn_peer[902] 	lookupTimeSig:mean 	2.95
scalar Network.dyn_peer[902] 	lookupStabilitySig:mean 	0.91539607662708
scalar Network.dyn_peer[902] 	lookupHopsSig:mean 	28.666666666667
scalar Network.dyn_peer[903] 	lookupTimeSig:mean 	2
scalar Network.dyn_peer[903] 	lookupStabilitySig:mean 	0.77900311723351
scalar Network.dyn_peer[903] 	lookupHopsSig:mean 	19.5
scalar Network.dyn_peer[904] 	lookupTimeSig:mean 	2.55
scalar Network.dyn_peer[904] 	lookupStabilitySig:mean 	0.9154916924114
scalar Network.dyn_peer[904] 	lookupHopsSig:mean 	24.666666666667
scalar Network.dyn_peer[905] 	lookupTimeSig:mean 	2.8
scalar Network.dyn_peer[905] 	lookupStabilitySig:mean 	0.74663391988724
scalar Network.dyn_peer[905] 	lookupHopsSig:mean 	27.25
scalar Network.dyn_peer[906] 	lookupTimeSig:mean 	1.8444444444444
scalar Network.dyn_peer[906] 	lookupStabilitySig:mean 	0.93652428195087
scalar Network.dyn_peer[906] 	lookupHopsSig:mean 	17.555555555556
scalar Network.dyn_peer[907] 	lookupTimeSig:mean 	1.7
scalar Network.dyn_peer[907] 	lookupStabilitySig:mean 	0.8432690706104
scalar Network.dyn_peer[907] 	lookupHopsSig:mean 	16.166666666667
scalar Network.dyn_peer[908] 	lookupTimeSig:mean 	1.7857142857143
scalar Network.dyn_peer[908] 	lookupStabilitySig:mean 	0.87020126331065
scalar Network.dyn_peer[908] 	lookupHopsSig:mean 	17
scalar Network.dyn_peer[909] 	lookupTimeSig:mean 	1.7285714285714
scalar Network.dyn_peer[909] 	lookupStabilitySig:mean 	0.87499773568873
scalar Network.dyn_peer[909] 	lookupHopsSig:mean 	16.428571428571
scalar Network.dyn_peer[910] 	lookupTimeSig:mean 	1.2333333333333
scalar Network.dyn_peer[910] 	lookupStabilitySig:mean 	0.68977664411068
scalar Network.dyn_peer[910] 	lookupHopsSig:mean 	11.666666666667
scalar Network.dyn_peer[911] 	lookupTimeSig:mean 	1.6916666666667
scalar Network.dyn_peer[911] 	lookupStabilitySig:mean 	0.9571281413082
scalar Network.dyn_peer[911] 	lookupHopsSig:mean 	16
scalar Network.dyn_peer[912] 	lookupTimeSig:mean 	1.3
scalar Network.dyn_peer[912] 	lookupStabilitySig:mean 	0.89312077624102
scalar Network.dyn_peer[912] 	lookupHopsSig:mean 	12.111111111111
scalar Network.dyn_peer[913] 	lookupTimeSig:mean 	1.17
scalar Network.dyn_peer[913] 	lookupStabilitySig:mean 	0.9506603362388
scalar Network.dyn_peer[913] 	lookupHopsSig:mean 	10.8
scalar Network.dyn_peer[914] 	lookupTimeSig:mean 	1.4
scalar Network.dyn_peer[914] 	lookupStabilitySig:mean 	0.81817643357707
scalar Network.dyn_peer[914] 	lookupHopsSig:mean 	13.142857142857
scalar Network.dyn_peer[915] 	lookupTimeSig:mean 	1.7666666666667
scalar Network.dyn_peer[915] 	lookupStabilitySig:mean 	0.86070356673251
scalar Network.dyn_peer[915] 	lookupHopsSig:mean 	16.833333333333
scalar Network.dyn_peer[916] 	lookupTimeSig:mean 	5.2
scalar Network.dyn_peer[916] 	lookupStabilitySig:mean 	0.88160866778344
scalar Network.dyn_peer[916] 	lookupHopsSig:mean 	51.5
scalar Network.dyn_peer[917] 	lookupTimeSig:mean 	1.6833333333333
scalar Network.dyn_peer[917] 	lookupStabilitySig:mean 	0.9392878250607
scalar Network.dyn_peer[917] 	lookupHopsSig:mean 	16
scalar Network.dyn_peer[918] 	lookupTimeSig:mean 	3.2666666666667
scalar Network.dyn_peer[918] 	lookupStabilitySig:mean 	0.95578667684458
scalar Network.dyn_peer[918] 	lookupHopsSig:mean 	31.833333333333
scalar Network.dyn_peer[919] 	lookupTimeSig:mean 	4.9
scalar Network.dyn_peer[919] 	lookupStabilitySig:mean 	0.59625117480755
scalar Network.dyn_peer[919] 	lookupHopsSig:mean 	48.5
scalar Network.dyn_peer[920] 	lookupTimeSig:mean 	2.2
scalar Network.dyn_peer[920] 	lookupStabilitySig:mean 	0.73386419316133
scalar Network.dyn_peer[920] 	lookupHopsSig:mean 	21.333333333333
scalar Network.dyn_peer[921] 	lookupTimeSig:mean 	1.99
scalar Network.dyn_peer[921] 	lookupStabilitySig:mean 	0.88621848542243
scalar Network.dyn_peer[921] 	lookupHopsSig:mean 	19
scalar Network.dyn_peer[922] 	lookupTimeSig:mean 	1.8333333333333
scalar Network.dyn_peer[922] 	lookupStabilitySig:mean 	0.72996666779121
scalar Network.dyn_peer[922] 	lookupHopsSig:mean 	17.666666666667
scalar Network.dyn_peer[923] 	lookupTimeSig:mean 	1.3125
scalar Network.dyn_peer[923] 	lookupStabilitySig:mean 	0.90658901189454
scalar Network.dyn_peer[923] 	lookupHopsSig:mean 	12.25
scalar Network.dyn_peer[924] 	lookupTimeSig:mean 	1.0666666666667
scalar Network.dyn_peer[924] 	lookupStabilitySig:mean 	0.72839373722672
scalar Network.dyn_peer[924] 	lookupHopsSig:mean 	10
scalar Network.dyn_peer[925] 	lookupTimeSig:mean 	1.3705882352941
scalar Network.dyn_peer[925] 	lookupStabilitySig:mean 	0.93792841226027
scalar Network.dyn_peer[925] 	lookupHopsSig:mean 	12.764705882353
scalar Network.dyn_peer[926] 	lookupTimeSig:mean 	2.32
scalar Network.dyn_peer[926] 	lookupStabilitySig:mean 	0.95946210816037
scalar Network.dyn_peer[926] 	lookupHopsSig:mean 	22.3
scalar Network.dyn_peer[927] 	lookupTimeSig:mean 	0.8
scalar Network.dyn_peer[927] 	lookupStabilitySig:mean 	0.7497460860759
scalar Network.dyn_peer[927] 	lookupHopsSig:mean 	7.25
scalar Network.dyn_peer[928] 	lookupTimeSig:mean 	1.4
scalar Network.dyn_peer[928] 	lookupStabilitySig:mean 	0.94741147231649
scalar Network.dyn_peer[928] 	lookupHopsSig:mean 	13.090909090909
scalar Network.dyn_peer[929] 	lookupTimeSig:mean 	1.025
scalar Network.dyn_peer[929] 	lookupStabilitySig:mean 	0.72655080631375
scalar Network.dyn_peer[929] 	lookupHopsSig:mean 	9.5
scalar Network.dyn_peer[930] 	lookupTimeSig:mean 	1.8363636363636
scalar Network.dyn_peer[930] 	lookupStabilitySig:mean 	0.93859357175163
scalar Network.dyn_peer[930] 	lookupHopsSig:mean 	17.454545454545
scalar Network.dyn_peer[931] 	lookupTimeSig:mean 	1.35
scalar Network.dyn_peer[931] 	lookupStabilitySig:mean 	0.87479733730045
scalar Network.dyn_peer[931] 	lookupHopsSig:mean 	12.666666666667
scalar Network.dyn_peer[932] 	lookupTimeSig:mean 	4
scalar Network.dyn_peer[932] 	lookupStabilitySig:mean 	0.89777311931054
scalar Network.dyn_peer[932] 	lookupHopsSig:mean 	39.333333333333
scalar Network.dyn_peer[933] 	lookupTimeSig:mean 	1.7142857142857
scalar Network.dyn_peer[933] 	lookupStabilitySig:mean 	0.89482290803322
scalar Network.dyn_peer[933] 	lookupHopsSig:mean 	16.285714285714
scalar Network.dyn_peer[934] 	lookupTimeSig:mean 	0.6
scalar Network.dyn_peer[934] 	lookupStabilitySig:mean 	0.67725043992201
scalar Network.dyn_peer[934] 	lookupHopsSig:mean 	5.3333333333333
scalar Network.dyn_peer[935] 	lookupTimeSig:mean 	2.4333333333333
scalar Network.dyn_peer[935] 	lookupStabilitySig:mean 	0.82134094834328
scalar Network.dyn_peer[935] 	lookupHopsSig:mean 	23.666666666667
scalar Network.dyn_peer[936] 	lookupTimeSig:mean 	1.6
scalar Network.dyn_peer[936] 	lookupStabilitySig:mean 	0.59565218538046
scalar Network.dyn_peer[936] 	lookupHopsSig:mean 	15.5
scalar Network.dyn_peer[937] 	lookupTimeSig:mean 	2.44
scalar Network.dyn_peer[937] 	lookupStabilitySig:mean 	0.81366474675015
scalar Network.dyn_peer[937] 	lookupHopsSig:mean 	23.6
scalar Network.dyn_peer[938] 	lookupTimeSig:mean 	1.175
scalar Network.dyn_peer[938] 	lookupStabilitySig:mean 	0.70317307300866
scalar Network.dyn_peer[938] 	lookupHopsSig:mean 	11
scalar Network.dyn_peer[939] 	lookupTimeSig:mean 	3.18
scalar Network.dyn_peer[939] 	lookupStabilitySig:mean 	0.93989951703697
scalar Network.dyn_peer[939] 	lookupHopsSig:mean 	31
scalar Network.dyn_peer[940] 	lookupTimeSig:mean 	1.4875
scalar Network.dyn_peer[940] 	lookupStabilitySig:mean 	0.9221039932454
scalar Network.dyn_peer[940] 	lookupHopsSig:mean 	14
scalar Network.dyn_peer[941] 	lookupTimeSig:mean 	1.85
scalar Network.dyn_peer[941] 	lookupStabilitySig:mean 	0.93500919197686
scalar Network.dyn_peer[941] 	lookupHopsSig:mean 	17.625
scalar Network.dyn_peer[942] 	lookupTimeSig:mean 	1.8
scalar Network.dyn_peer[942] 	lookupStabilitySig:mean 	0.94591405190941
scalar Network.dyn_peer[942] 	lookupHopsSig:mean 	17.111111111111
scalar Network.dyn_peer[943] 	lookupTimeSig:mean 	2.325
scalar Network.dyn_peer[943] 	lookupStabilitySig:mean 	0.9455673743505
scalar Network.dyn_peer[943] 	lookupHopsSig:mean 	22.375
scalar Network.dyn_peer[944] 	lookupTimeSig:mean 	0.86666666666667
scalar Network.dyn_peer[944] 	lookupStabilitySig:mean 	0.74547342086832
scalar Network.dyn_peer[944] 	lookupHopsSig:mean 	8
scalar Network.dyn_peer[945] 	lookupTimeSig:mean 	0.9875
scalar Network.dyn_peer[945] 	lookupStabilitySig:mean 	0.92364254058339
scalar Network.dyn_peer[945] 	lookupHopsSig:mean 	9
scalar Network.dyn_peer[946] 	lookupTimeSig:mean 	1.5333333333333
scalar Network.dyn_peer[946] 	lookupStabilitySig:mean 	0.95950072269059
scalar Network.dyn_peer[946] 	lookupHopsSig:mean 	14.444444444444
scalar Network.dyn_peer[947] 	lookupTimeSig:mean 	3.2666666666667
scalar Network.dyn_peer[947] 	lookupStabilitySig:mean 	0.92066014620165
scalar Network.dyn_peer[947] 	lookupHopsSig:mean 	32
scalar Network.dyn_peer[948] 	lookupTimeSig:mean 	1.3
scalar Network.dyn_peer[948] 	lookupStabilitySig:mean 	0.92218667168968
scalar Network.dyn_peer[948] 	lookupHopsSig:mean 	12.142857142857
scalar Network.dyn_peer[949] 	lookupTimeSig:mean 	1.8666666666667
scalar Network.dyn_peer[949] 	lookupStabilitySig:mean 	0.75832422077656
scalar Network.dyn_peer[949] 	lookupHopsSig:mean 	18
scalar Network.dyn_peer[950] 	lookupTimeSig:mean 	0.98571428571429
scalar Network.dyn_peer[950] 	lookupStabilitySig:mean 	0.86494878759342
scalar Network.dyn_peer[950] 	lookupHopsSig:mean 	9
scalar Network.dyn_peer[951] 	lookupTimeSig:mean 	2.65
scalar Network.dyn_peer[951] 	lookupStabilitySig:mean 	0.67821782082319
scalar Network.dyn_peer[951] 	lookupHopsSig:mean 	26
scalar Network.dyn_peer[952] 	lookupTimeSig:mean 	1.45
scalar Network.dyn_peer[952] 	lookupStabilitySig:mean 	0.91794926928123
scalar Network.dyn_peer[952] 	lookupHopsSig:mean 	13.6
scalar Network.dyn_peer[953] 	lookupTimeSig:mean 	1.45
scalar Network.dyn_peer[953] 	lookupStabilitySig:mean 	0.65794767439365
scalar Network.dyn_peer[953] 	lookupHopsSig:mean 	14
scalar Network.dyn_peer[954] 	lookupTimeSig:mean 	1.45
scalar Network.dyn_peer[954] 	lookupStabilitySig:mean 	0.70194572396576
scalar Network.dyn_peer[954] 	lookupHopsSig:mean 	13.75
scalar Network.dyn_peer[955] 	lookupTimeSig:mean 	1.85
scalar Network.dyn_peer[955] 	lookupStabilitySig:mean 	0.8155174581334
scalar Network.dyn_peer[955] 	lookupHopsSig:mean 	17.75
scalar Network.dyn_peer[956] 	lookupTimeSig:mean 	1.1
scalar Network.dyn_peer[956] 	lookupStabilitySig:mean 	0.67216803630193
scalar Network.dyn_peer[956] 	lookupHopsSig:mean 	10.333333333333
scalar Network.dyn_peer[957] 	lookupTimeSig:mean 	2.125
scalar Network.dyn_peer[957] 	lookupStabilitySig:mean 	0.90079089161009
scalar Network.dyn_peer[957] 	lookupHopsSig:mean 	20.5
scalar Network.dyn_peer[958] 	lookupTimeSig:mean 	1
scalar Network.dyn_peer[958] 	lookupStabilitySig:mean 	0.80715717375278
scalar Network.dyn_peer[958] 	lookupHopsSig:mean 	9.2
scalar Network.dyn_peer[959] 	lookupTimeSig:mean 	2.6
scalar Network.dyn_peer[959] 	lookupStabilitySig:mean 	0.91450533270836
scalar Network.dyn_peer[959] 	lookupHopsSig:mean 	25.25
scalar Network.dyn_peer[960] 	lookupTimeSig:mean 	1.42
scalar Network.dyn_peer[960] 	lookupStabilitySig:mean 	0.8133186981082
scalar Network.dyn_peer[960] 	lookupHopsSig:mean 	13.4
scalar Network.dyn_peer[961] 	lookupTimeSig:mean 	1.025
scalar Network.dyn_peer[961] 	lookupStabilitySig:mean 	0.87185330921784
scalar Network.dyn_peer[961] 	lookupHopsSig:mean 	9.375
scalar Network.dyn_peer[962] 	lookupTimeSig:mean 	2.15
scalar Network.dyn_peer[962] 	lookupStabilitySig:mean 	0.80577263251568
scalar Network.dyn_peer[962] 	lookupHopsSig:mean 	20.666666666667
scalar Network.dyn_peer[963] 	lookupTimeSig:mean 	2
scalar Network.dyn_peer[963] 	lookupStabilitySig:mean 	0.75936429202557
scalar Network.dyn_peer[963] 	lookupHopsSig:mean 	19.5
scalar Network.dyn_peer[964] 	lookupTimeSig:mean 	2.08
scalar Network.dyn_peer[964] 	lookupStabilitySig:mean 	0.88772850707173
scalar Network.dyn_peer[964] 	lookupHopsSig:mean 	20
scalar Network.dyn_peer[965] 	lookupTimeSig:mean 	1.6333333333333
scalar Network.dyn_peer[965] 	lookupStabilitySig:mean 	0.92254692347099
scalar Network.dyn_peer[965] 	lookupHopsSig:mean 	15.5
scalar Network.dyn_peer[966] 	lookupTimeSig:mean 	1.7111111111111
scalar Network.dyn_peer[966] 	lookupStabilitySig:mean 	0.94622840463287
scalar Network.dyn_peer[966] 	lookupHopsSig:mean 	16.222222222222
scalar Network.dyn_peer[967] 	lookupTimeSig:mean 	1.9888888888889
scalar Network.dyn_peer[967] 	lookupStabilitySig:mean 	0.89994310918781
scalar Network.dyn_peer[967] 	lookupHopsSig:mean 	19
scalar Network.dyn_peer[968] 	lookupTimeSig:mean 	3.125
scalar Network.dyn_peer[968] 	lookupStabilitySig:mean 	0.90828445740044
scalar Network.dyn_peer[968] 	lookupHopsSig:mean 	30.5
scalar Network.dyn_peer[969] 	lookupTimeSig:mean 	2.0888888888889
scalar Network.dyn_peer[969] 	lookupStabilitySig:mean 	0.94997521510555
scalar Network.dyn_peer[969] 	lookupHopsSig:mean 	20
scalar Network.dyn_peer[970] 	lookupTimeSig:mean 	2.7
scalar Network.dyn_peer[970] 	lookupStabilitySig:mean 	0.90896809436381
scalar Network.dyn_peer[970] 	lookupHopsSig:mean 	26.2
scalar Network.dyn_peer[971] 	lookupTimeSig:mean 	2.08
scalar Network.dyn_peer[971] 	lookupStabilitySig:mean 	0.92427170649171
scalar Network.dyn_peer[971] 	lookupHopsSig:mean 	19.9
scalar Network.dyn_peer[972] 	lookupTimeSig:mean 	1.75
scalar Network.dyn_peer[972] 	lookupStabilitySig:mean 	0.89454777352512
scalar Network.dyn_peer[972] 	lookupHopsSig:mean 	16.75
scalar Network.dyn_peer[973] 	lookupTimeSig:mean 	0.26
scalar Network.dyn_peer[973] 	lookupStabilitySig:mean 	0.84684759527445
scalar Network.dyn_peer[973] 	lookupHopsSig:mean 	1.8
scalar Network.dyn_peer[974] 	lookupTimeSig:mean 	1.35
scalar Network.dyn_peer[974] 	lookupStabilitySig:mean 	0.94374090811471
scalar Network.dyn_peer[974] 	lookupHopsSig:mean 	12.5625
scalar Network.dyn_peer[975] 	lookupTimeSig:mean 	2.45
scalar Network.dyn_peer[975] 	lookupStabilitySig:mean 	0.94996522192378
scalar Network.dyn_peer[975] 	lookupHopsSig:mean 	23.625
scalar Network.dyn_peer[976] 	lookupTimeSig:mean 	1.8571428571429
scalar Network.dyn_peer[976] 	lookupStabilitySig:mean 	0.93671386143459
scalar Network.dyn_peer[976] 	lookupHopsSig:mean 	17.714285714286
scalar Network.dyn_peer[977] 	lookupTimeSig:mean 	2.38
scalar Network.dyn_peer[977] 	lookupStabilitySig:mean 	0.91636951081455
scalar Network.dyn_peer[977] 	lookupHopsSig:mean 	23
scalar Network.dyn_peer[978] 	lookupTimeSig:mean 	1.92
scalar Network.dyn_peer[978] 	lookupStabilitySig:mean 	0.84856479689479
scalar Network.dyn_peer[978] 	lookupHopsSig:mean 	18.4
scalar Network.dyn_peer[979] 	lookupTimeSig:mean 	2.0428571428571
scalar Network.dyn_peer[979] 	lookupStabilitySig:mean 	0.92299549401339
scalar Network.dyn_peer[979] 	lookupHopsSig:mean 	19.571428571429
scalar Network.dyn_peer[980] 	lookupTimeSig:mean 	1.2285714285714
scalar Network.dyn_peer[980] 	lookupStabilitySig:mean 	0.89582840433078
scalar Network.dyn_peer[980] 	lookupHopsSig:mean 	11.428571428571
scalar Network.dyn_peer[981] 	lookupTimeSig:mean 	1.76
scalar Network.dyn_peer[981] 	lookupStabilitySig:mean 	0.91858089454472
scalar Network.dyn_peer[981] 	lookupHopsSig:mean 	16.8
scalar Network.dyn_peer[982] 	lookupTimeSig:mean 	2.7
scalar Network.dyn_peer[982] 	lookupStabilitySig:mean 	0.94713944094256
scalar Network.dyn_peer[982] 	lookupHopsSig:mean 	26.2
scalar Network.dyn_peer[983] 	lookupTimeSig:mean 	1.55
scalar Network.dyn_peer[983] 	lookupStabilitySig:mean 	0.96066492427296
scalar Network.dyn_peer[983] 	lookupHopsSig:mean 	14.583333333333
scalar Network.dyn_peer[984] 	lookupTimeSig:mean 	1.8333333333333
scalar Network.dyn_peer[984] 	lookupStabilitySig:mean 	0.92503632154937
scalar Network.dyn_peer[984] 	lookupHopsSig:mean 	17.5
scalar Network.dyn_peer[985] 	lookupTimeSig:mean 	2.4666666666667
scalar Network.dyn_peer[985] 	lookupStabilitySig:mean 	0.73221737891436
scalar Network.dyn_peer[985] 	lookupHopsSig:mean 	24
scalar Network.dyn_peer[986] 	lookupTimeSig:mean 	2.94
scalar Network.dyn_peer[986] 	lookupStabilitySig:mean 	0.92902348339558
scalar Network.dyn_peer[986] 	lookupHopsSig:mean 	28.6
scalar Network.dyn_peer[987] 	lookupTimeSig:mean 	3.2333333333333
scalar Network.dyn_peer[987] 	lookupStabilitySig:mean 	0.82434355964263
scalar Network.dyn_peer[987] 	lookupHopsSig:mean 	31.666666666667
scalar Network.dyn_peer[988] 	lookupTimeSig:mean 	1.5285714285714
scalar Network.dyn_peer[988] 	lookupStabilitySig:mean 	0.87247584534011
scalar Network.dyn_peer[988] 	lookupHopsSig:mean 	14.428571428571
scalar Network.dyn_peer[989] 	lookupTimeSig:mean 	0.88333333333333
scalar Network.dyn_peer[989] 	lookupStabilitySig:mean 	0.8858129036768
scalar Network.dyn_peer[989] 	lookupHopsSig:mean 	8
scalar Network.dyn_peer[990] 	lookupTimeSig:mean 	2.0333333333333
scalar Network.dyn_peer[990] 	lookupStabilitySig:mean 	0.78669853508472
scalar Network.dyn_peer[990] 	lookupHopsSig:mean 	19.666666666667
scalar Network.dyn_peer[991] 	lookupTimeSig:mean 	1.9333333333333
scalar Network.dyn_peer[991] 	lookupStabilitySig:mean 	0.80908262574424
scalar Network.dyn_peer[991] 	lookupHopsSig:mean 	18.666666666667
scalar Network.dyn_peer[992] 	lookupTimeSig:mean 	1.4375
scalar Network.dyn_peer[992] 	lookupStabilitySig:mean 	0.91159749380313
scalar Network.dyn_peer[992] 	lookupHopsSig:mean 	13.5
scalar Network.dyn_peer[993] 	lookupTimeSig:mean 	2.0142857142857
scalar Network.dyn_peer[993] 	lookupStabilitySig:mean 	0.93904999962875
scalar Network.dyn_peer[993] 	lookupHopsSig:mean 	19.285714285714
scalar Network.dyn_peer[994] 	lookupTimeSig:mean 	2.02
scalar Network.dyn_peer[994] 	lookupStabilitySig:mean 	0.78759401850402
scalar Network.dyn_peer[994] 	lookupHopsSig:mean 	19.4
scalar Network.dyn_peer[995] 	lookupTimeSig:mean 	0.75
scalar Network.dyn_peer[995] 	lookupStabilitySig:mean 	0.79430930688977
scalar Network.dyn_peer[995] 	lookupHopsSig:mean 	6.75
scalar Network.dyn_peer[996] 	lookupTimeSig:mean 	1.5
scalar Network.dyn_peer[996] 	lookupStabilitySig:mean 	0.72527632676065
scalar Network.dyn_peer[996] 	lookupHopsSig:mean 	14.25
scalar Network.dyn_peer[997] 	lookupTimeSig:mean 	2.08
scalar Network.dyn_peer[997] 	lookupStabilitySig:mean 	0.91478161253035
scalar Network.dyn_peer[997] 	lookupHopsSig:mean 	20
scalar Network.dyn_peer[998] 	lookupTimeSig:mean 	1.5454545454545
scalar Network.dyn_peer[998] 	lookupStabilitySig:mean 	0.96109372809191
scalar Network.dyn_peer[998] 	lookupHopsSig:mean 	14.545454545455
scalar Network.dyn_peer[999] 	lookupTimeSig:mean 	3.85
scalar Network.dyn_peer[999] 	lookupStabilitySig:mean 	0.82469330728054
scalar Network.dyn_peer[999] 	lookupHopsSig:mean 	38
scalar Network.churner 	inGoingSizeSig:mean 	498.64935064935
