version 2
run Stability2-305-20130526-00:54:33-26640
attr configname Stability2
attr datetime 20130526-00:54:33
attr experiment Stability2
attr inifile omnetpp.ini
attr iterationvars $0=1000
attr iterationvars2 "$0=1000, $repetition=5"
attr measurement $0=1000
attr network Network
attr processid 26640
attr repetition 5
attr replication #5
attr resultdir results
attr runnumber 305
attr seedset 305

scalar Network.dyn_peer[0] 	lookupTimeSig:mean 	2.2857142857143
scalar Network.dyn_peer[0] 	lookupStabilitySig:mean 	0.6367796646165
scalar Network.dyn_peer[0] 	lookupHopsSig:mean 	22
scalar Network.dyn_peer[1] 	lookupTimeSig:mean 	1.8333333333333
scalar Network.dyn_peer[1] 	lookupStabilitySig:mean 	0.018079121907552
scalar Network.dyn_peer[1] 	lookupHopsSig:mean 	17.666666666667
scalar Network.dyn_peer[2] 	lookupTimeSig:mean 	2.55
scalar Network.dyn_peer[2] 	lookupStabilitySig:mean 	-0.26833337545395
scalar Network.dyn_peer[2] 	lookupHopsSig:mean 	25
scalar Network.dyn_peer[3] 	lookupTimeSig:mean 	0.85
scalar Network.dyn_peer[3] 	lookupStabilitySig:mean 	0.065659329295158
scalar Network.dyn_peer[3] 	lookupHopsSig:mean 	7.75
scalar Network.dyn_peer[4] 	lookupTimeSig:mean 	1.1666666666667
scalar Network.dyn_peer[4] 	lookupStabilitySig:mean 	-0.096606492996216
scalar Network.dyn_peer[4] 	lookupHopsSig:mean 	11
scalar Network.dyn_peer[5] 	lookupTimeSig:mean 	1.65
scalar Network.dyn_peer[5] 	lookupStabilitySig:mean 	0.40485831412176
scalar Network.dyn_peer[5] 	lookupHopsSig:mean 	15.666666666667
scalar Network.dyn_peer[6] 	lookupTimeSig:mean 	1.8
scalar Network.dyn_peer[6] 	lookupStabilitySig:mean 	0.53596287965775
scalar Network.dyn_peer[6] 	lookupHopsSig:mean 	17.25
scalar Network.dyn_peer[7] 	lookupTimeSig:mean 	2.85
scalar Network.dyn_peer[7] 	lookupStabilitySig:mean 	0.78625954687595
scalar Network.dyn_peer[7] 	lookupHopsSig:mean 	28
scalar Network.dyn_peer[8] 	lookupTimeSig:mean 	1.1
scalar Network.dyn_peer[8] 	lookupStabilitySig:mean 	0.21593407914042
scalar Network.dyn_peer[8] 	lookupHopsSig:mean 	10.25
scalar Network.dyn_peer[9] 	lookupTimeSig:mean 	2.06
scalar Network.dyn_peer[9] 	lookupStabilitySig:mean 	0.81840919591486
scalar Network.dyn_peer[9] 	lookupHopsSig:mean 	19.8
scalar Network.dyn_peer[10] 	lookupTimeSig:mean 	1.56
scalar Network.dyn_peer[10] 	lookupStabilitySig:mean 	0.36740813180804
scalar Network.dyn_peer[10] 	lookupHopsSig:mean 	14.8
scalar Network.dyn_peer[11] 	lookupTimeSig:mean 	2.025
scalar Network.dyn_peer[11] 	lookupStabilitySig:mean 	0.19296206347644
scalar Network.dyn_peer[11] 	lookupHopsSig:mean 	19.5
scalar Network.dyn_peer[12] 	lookupTimeSig:mean 	1
scalar Network.dyn_peer[12] 	lookupStabilitySig:mean 	0.073484836146235
scalar Network.dyn_peer[12] 	lookupHopsSig:mean 	9.25
scalar Network.dyn_peer[13] 	lookupTimeSig:mean 	1.9777777777778
scalar Network.dyn_peer[13] 	lookupStabilitySig:mean 	0.7506196879549
scalar Network.dyn_peer[13] 	lookupHopsSig:mean 	18.888888888889
scalar Network.dyn_peer[14] 	lookupTimeSig:mean 	1.36
scalar Network.dyn_peer[14] 	lookupStabilitySig:mean 	0.49463208019733
scalar Network.dyn_peer[14] 	lookupHopsSig:mean 	12.8
scalar Network.dyn_peer[15] 	lookupTimeSig:mean 	1.2571428571429
scalar Network.dyn_peer[15] 	lookupStabilitySig:mean 	0.69746789229768
scalar Network.dyn_peer[15] 	lookupHopsSig:mean 	11.714285714286
scalar Network.dyn_peer[16] 	lookupTimeSig:mean 	1.49
scalar Network.dyn_peer[16] 	lookupStabilitySig:mean 	0.61581679917872
scalar Network.dyn_peer[16] 	lookupHopsSig:mean 	14
scalar Network.dyn_peer[17] 	lookupTimeSig:mean 	1.7857142857143
scalar Network.dyn_peer[17] 	lookupStabilitySig:mean 	0.58734010372843
scalar Network.dyn_peer[17] 	lookupHopsSig:mean 	17
scalar Network.dyn_peer[18] 	lookupTimeSig:mean 	2.9666666666667
scalar Network.dyn_peer[18] 	lookupStabilitySig:mean 	0.73507009198268
scalar Network.dyn_peer[18] 	lookupHopsSig:mean 	29
scalar Network.dyn_peer[19] 	lookupTimeSig:mean 	1.5333333333333
scalar Network.dyn_peer[19] 	lookupStabilitySig:mean 	0.72044371037434
scalar Network.dyn_peer[19] 	lookupHopsSig:mean 	14.5
scalar Network.dyn_peer[20] 	lookupTimeSig:mean 	1.58
scalar Network.dyn_peer[20] 	lookupStabilitySig:mean 	0.53602183386683
scalar Network.dyn_peer[20] 	lookupHopsSig:mean 	15
scalar Network.dyn_peer[21] 	lookupTimeSig:mean 	2.375
scalar Network.dyn_peer[21] 	lookupStabilitySig:mean 	0.48952757846564
scalar Network.dyn_peer[21] 	lookupHopsSig:mean 	23
scalar Network.dyn_peer[22] 	lookupTimeSig:mean 	1.7666666666667
scalar Network.dyn_peer[22] 	lookupStabilitySig:mean 	0.30141600469748
scalar Network.dyn_peer[22] 	lookupHopsSig:mean 	17
scalar Network.dyn_peer[23] 	lookupTimeSig:mean 	1.6416666666667
scalar Network.dyn_peer[23] 	lookupStabilitySig:mean 	0.774879539075
scalar Network.dyn_peer[23] 	lookupHopsSig:mean 	15.5
scalar Network.dyn_peer[24] 	lookupTimeSig:mean 	1.55
scalar Network.dyn_peer[24] 	lookupStabilitySig:mean 	0.66355446083471
scalar Network.dyn_peer[24] 	lookupHopsSig:mean 	14.6
scalar Network.dyn_peer[25] 	lookupTimeSig:mean 	1.675
scalar Network.dyn_peer[25] 	lookupStabilitySig:mean 	0.6134374095127
scalar Network.dyn_peer[25] 	lookupHopsSig:mean 	16
scalar Network.dyn_peer[26] 	lookupTimeSig:mean 	1.7333333333333
scalar Network.dyn_peer[26] 	lookupStabilitySig:mean 	0.76044754477011
scalar Network.dyn_peer[26] 	lookupHopsSig:mean 	16.444444444444
scalar Network.dyn_peer[27] 	lookupTimeSig:mean 	1.8
scalar Network.dyn_peer[27] 	lookupStabilitySig:mean 	0.73525895550847
scalar Network.dyn_peer[27] 	lookupHopsSig:mean 	17.25
scalar Network.dyn_peer[28] 	lookupTimeSig:mean 	1.375
scalar Network.dyn_peer[28] 	lookupStabilitySig:mean 	0.58731434633955
scalar Network.dyn_peer[28] 	lookupHopsSig:mean 	13
scalar Network.dyn_peer[29] 	lookupTimeSig:mean 	1.575
scalar Network.dyn_peer[29] 	lookupStabilitySig:mean 	0.27325517684221
scalar Network.dyn_peer[29] 	lookupHopsSig:mean 	15
scalar Network.dyn_peer[30] 	lookupTimeSig:mean 	1.45
scalar Network.dyn_peer[30] 	lookupStabilitySig:mean 	0.76927151810378
scalar Network.dyn_peer[30] 	lookupHopsSig:mean 	13.75
scalar Network.dyn_peer[31] 	lookupTimeSig:mean 	1.24
scalar Network.dyn_peer[31] 	lookupStabilitySig:mean 	0.43339084014297
scalar Network.dyn_peer[31] 	lookupHopsSig:mean 	11.6
scalar Network.dyn_peer[32] 	lookupTimeSig:mean 	2.0333333333333
scalar Network.dyn_peer[32] 	lookupStabilitySig:mean 	0.40430162039896
scalar Network.dyn_peer[32] 	lookupHopsSig:mean 	19.666666666667
scalar Network.dyn_peer[33] 	lookupTimeSig:mean 	2.45
scalar Network.dyn_peer[33] 	lookupStabilitySig:mean 	0.54209330352023
scalar Network.dyn_peer[33] 	lookupHopsSig:mean 	23.75
scalar Network.dyn_peer[34] 	lookupTimeSig:mean 	2.44
scalar Network.dyn_peer[34] 	lookupStabilitySig:mean 	0.54105907231569
scalar Network.dyn_peer[34] 	lookupHopsSig:mean 	23.6
scalar Network.dyn_peer[35] 	lookupTimeSig:mean 	3.1333333333333
scalar Network.dyn_peer[35] 	lookupStabilitySig:mean 	0.40126082797845
scalar Network.dyn_peer[35] 	lookupHopsSig:mean 	30.666666666667
scalar Network.dyn_peer[36] 	lookupTimeSig:mean 	1.7909090909091
scalar Network.dyn_peer[36] 	lookupStabilitySig:mean 	0.69841599354351
scalar Network.dyn_peer[36] 	lookupHopsSig:mean 	17
scalar Network.dyn_peer[37] 	lookupTimeSig:mean 	2.0833333333333
scalar Network.dyn_peer[37] 	lookupStabilitySig:mean 	0.71298823102067
scalar Network.dyn_peer[37] 	lookupHopsSig:mean 	20
scalar Network.dyn_peer[38] 	lookupTimeSig:mean 	2.475
scalar Network.dyn_peer[38] 	lookupStabilitySig:mean 	0.30234739533626
scalar Network.dyn_peer[38] 	lookupHopsSig:mean 	24
scalar Network.dyn_peer[39] 	lookupTimeSig:mean 	1.7666666666667
scalar Network.dyn_peer[39] 	lookupStabilitySig:mean 	0.69129657703969
scalar Network.dyn_peer[39] 	lookupHopsSig:mean 	16.777777777778
scalar Network.dyn_peer[40] 	lookupTimeSig:mean 	2.5666666666667
scalar Network.dyn_peer[40] 	lookupStabilitySig:mean 	-0.019514280060927
scalar Network.dyn_peer[40] 	lookupHopsSig:mean 	25
scalar Network.dyn_peer[41] 	lookupTimeSig:mean 	2.4
scalar Network.dyn_peer[41] 	lookupStabilitySig:mean 	0.2086675260216
scalar Network.dyn_peer[41] 	lookupHopsSig:mean 	23.25
scalar Network.dyn_peer[42] 	lookupTimeSig:mean 	1.7
scalar Network.dyn_peer[42] 	lookupStabilitySig:mean 	0.75313725322485
scalar Network.dyn_peer[42] 	lookupHopsSig:mean 	16.25
scalar Network.dyn_peer[43] 	lookupTimeSig:mean 	0.975
scalar Network.dyn_peer[43] 	lookupStabilitySig:mean 	0.36303781345487
scalar Network.dyn_peer[43] 	lookupHopsSig:mean 	9
scalar Network.dyn_peer[44] 	lookupTimeSig:mean 	1.2555555555556
scalar Network.dyn_peer[44] 	lookupStabilitySig:mean 	0.77161057800468
scalar Network.dyn_peer[44] 	lookupHopsSig:mean 	11.666666666667
scalar Network.dyn_peer[45] 	lookupTimeSig:mean 	1.6666666666667
scalar Network.dyn_peer[45] 	lookupStabilitySig:mean 	0.65237095532939
scalar Network.dyn_peer[45] 	lookupHopsSig:mean 	15.833333333333
scalar Network.dyn_peer[46] 	lookupTimeSig:mean 	1.9071428571429
scalar Network.dyn_peer[46] 	lookupStabilitySig:mean 	0.94193514855579
scalar Network.dyn_peer[46] 	lookupHopsSig:mean 	18.142857142857
scalar Network.dyn_peer[47] 	lookupTimeSig:mean 	1.3
scalar Network.dyn_peer[47] 	lookupStabilitySig:mean 	0.2821428515017
scalar Network.dyn_peer[47] 	lookupHopsSig:mean 	12.25
scalar Network.dyn_peer[48] 	lookupTimeSig:mean 	2.1
scalar Network.dyn_peer[48] 	lookupStabilitySig:mean 	0.47977278828621
scalar Network.dyn_peer[48] 	lookupHopsSig:mean 	20.2
scalar Network.dyn_peer[49] 	lookupTimeSig:mean 	2.025
scalar Network.dyn_peer[49] 	lookupStabilitySig:mean 	0.38255133014172
scalar Network.dyn_peer[49] 	lookupHopsSig:mean 	19.5
scalar Network.dyn_peer[50] 	lookupTimeSig:mean 	2.9
scalar Network.dyn_peer[50] 	lookupStabilitySig:mean 	-0.10443571209908
scalar Network.dyn_peer[50] 	lookupHopsSig:mean 	28.333333333333
scalar Network.dyn_peer[51] 	lookupTimeSig:mean 	2.6285714285714
scalar Network.dyn_peer[51] 	lookupStabilitySig:mean 	0.80083680538727
scalar Network.dyn_peer[51] 	lookupHopsSig:mean 	25.428571428571
scalar Network.dyn_peer[52] 	lookupTimeSig:mean 	2.525
scalar Network.dyn_peer[52] 	lookupStabilitySig:mean 	0.46042772196233
scalar Network.dyn_peer[52] 	lookupHopsSig:mean 	24.5
scalar Network.dyn_peer[53] 	lookupTimeSig:mean 	1.2833333333333
scalar Network.dyn_peer[53] 	lookupStabilitySig:mean 	0.51968178339303
scalar Network.dyn_peer[53] 	lookupHopsSig:mean 	12
scalar Network.dyn_peer[54] 	lookupTimeSig:mean 	1.55
scalar Network.dyn_peer[54] 	lookupStabilitySig:mean 	0.48453433873753
scalar Network.dyn_peer[54] 	lookupHopsSig:mean 	14.666666666667
scalar Network.dyn_peer[55] 	lookupTimeSig:mean 	1.9444444444444
scalar Network.dyn_peer[55] 	lookupStabilitySig:mean 	0.92388193743924
scalar Network.dyn_peer[55] 	lookupHopsSig:mean 	18.555555555556
scalar Network.dyn_peer[56] 	lookupTimeSig:mean 	1.53
scalar Network.dyn_peer[56] 	lookupStabilitySig:mean 	0.6376161144115
scalar Network.dyn_peer[56] 	lookupHopsSig:mean 	14.4
scalar Network.dyn_peer[57] 	lookupTimeSig:mean 	1.2
scalar Network.dyn_peer[57] 	lookupStabilitySig:mean 	0.11992322094738
scalar Network.dyn_peer[57] 	lookupHopsSig:mean 	11.25
scalar Network.dyn_peer[58] 	lookupTimeSig:mean 	1.55
scalar Network.dyn_peer[58] 	lookupStabilitySig:mean 	0.71531959204003
scalar Network.dyn_peer[58] 	lookupHopsSig:mean 	14.75
scalar Network.dyn_peer[59] 	lookupTimeSig:mean 	1.6
scalar Network.dyn_peer[59] 	lookupStabilitySig:mean 	0.32161654531956
scalar Network.dyn_peer[59] 	lookupHopsSig:mean 	15.25
scalar Network.dyn_peer[60] 	lookupTimeSig:mean 	1.125
scalar Network.dyn_peer[60] 	lookupStabilitySig:mean 	0.38946694228798
scalar Network.dyn_peer[60] 	lookupHopsSig:mean 	10.5
scalar Network.dyn_peer[61] 	lookupTimeSig:mean 	1.26
scalar Network.dyn_peer[61] 	lookupStabilitySig:mean 	0.27887565270066
scalar Network.dyn_peer[61] 	lookupHopsSig:mean 	11.8
scalar Network.dyn_peer[62] 	lookupTimeSig:mean 	3.25
scalar Network.dyn_peer[62] 	lookupStabilitySig:mean 	-0.051184445619583
scalar Network.dyn_peer[62] 	lookupHopsSig:mean 	32
scalar Network.dyn_peer[63] 	lookupTimeSig:mean 	1.8
scalar Network.dyn_peer[63] 	lookupStabilitySig:mean 	0.51487030248557
scalar Network.dyn_peer[63] 	lookupHopsSig:mean 	17.142857142857
scalar Network.dyn_peer[64] 	lookupTimeSig:mean 	1.3
scalar Network.dyn_peer[64] 	lookupStabilitySig:mean 	0.82465920258047
scalar Network.dyn_peer[64] 	lookupHopsSig:mean 	12.142857142857
scalar Network.dyn_peer[65] 	lookupTimeSig:mean 	3.8666666666667
scalar Network.dyn_peer[65] 	lookupStabilitySig:mean 	0.64137329161167
scalar Network.dyn_peer[65] 	lookupHopsSig:mean 	38
scalar Network.dyn_peer[66] 	lookupTimeSig:mean 	5.3
scalar Network.dyn_peer[66] 	lookupStabilitySig:mean 	0.90056817978621
scalar Network.dyn_peer[66] 	lookupHopsSig:mean 	52.5
scalar Network.dyn_peer[67] 	lookupTimeSig:mean 	1.975
scalar Network.dyn_peer[67] 	lookupStabilitySig:mean 	0.69136534631252
scalar Network.dyn_peer[67] 	lookupHopsSig:mean 	19
scalar Network.dyn_peer[68] 	lookupTimeSig:mean 	1.1357142857143
scalar Network.dyn_peer[68] 	lookupStabilitySig:mean 	0.93919633002952
scalar Network.dyn_peer[68] 	lookupHopsSig:mean 	10.428571428571
scalar Network.dyn_peer[69] 	lookupTimeSig:mean 	2.45
scalar Network.dyn_peer[69] 	lookupStabilitySig:mean 	0.61016945261508
scalar Network.dyn_peer[69] 	lookupHopsSig:mean 	23.75
scalar Network.dyn_peer[70] 	lookupTimeSig:mean 	1.575
scalar Network.dyn_peer[70] 	lookupStabilitySig:mean 	0.54951977939345
scalar Network.dyn_peer[70] 	lookupHopsSig:mean 	14.875
scalar Network.dyn_peer[71] 	lookupTimeSig:mean 	2
scalar Network.dyn_peer[71] 	lookupStabilitySig:mean 	0.60712865367532
scalar Network.dyn_peer[71] 	lookupHopsSig:mean 	19.142857142857
scalar Network.dyn_peer[72] 	lookupTimeSig:mean 	1.7375
scalar Network.dyn_peer[72] 	lookupStabilitySig:mean 	0.76440318312962
scalar Network.dyn_peer[72] 	lookupHopsSig:mean 	16.5
scalar Network.dyn_peer[73] 	lookupTimeSig:mean 	2.4
scalar Network.dyn_peer[73] 	lookupStabilitySig:mean 	0.50465332753956
scalar Network.dyn_peer[73] 	lookupHopsSig:mean 	23.2
scalar Network.dyn_peer[74] 	lookupTimeSig:mean 	1.7666666666667
scalar Network.dyn_peer[74] 	lookupStabilitySig:mean 	0.33702123661836
scalar Network.dyn_peer[74] 	lookupHopsSig:mean 	17
scalar Network.dyn_peer[75] 	lookupTimeSig:mean 	2.12
scalar Network.dyn_peer[75] 	lookupStabilitySig:mean 	0.75064782164991
scalar Network.dyn_peer[75] 	lookupHopsSig:mean 	20.4
scalar Network.dyn_peer[76] 	lookupTimeSig:mean 	1.975
scalar Network.dyn_peer[76] 	lookupStabilitySig:mean 	0.37660457752645
scalar Network.dyn_peer[76] 	lookupHopsSig:mean 	19
scalar Network.dyn_peer[77] 	lookupTimeSig:mean 	2.175
scalar Network.dyn_peer[77] 	lookupStabilitySig:mean 	0.52876000851393
scalar Network.dyn_peer[77] 	lookupHopsSig:mean 	21
scalar Network.dyn_peer[78] 	lookupTimeSig:mean 	1.2333333333333
scalar Network.dyn_peer[78] 	lookupStabilitySig:mean 	0.058608055114746
scalar Network.dyn_peer[78] 	lookupHopsSig:mean 	11.666666666667
scalar Network.dyn_peer[79] 	lookupTimeSig:mean 	1.075
scalar Network.dyn_peer[79] 	lookupStabilitySig:mean 	0.61028503882699
scalar Network.dyn_peer[79] 	lookupHopsSig:mean 	9.875
scalar Network.dyn_peer[80] 	lookupTimeSig:mean 	1.7666666666667
scalar Network.dyn_peer[80] 	lookupStabilitySig:mean 	0.28015120824178
scalar Network.dyn_peer[80] 	lookupHopsSig:mean 	17
scalar Network.dyn_peer[81] 	lookupTimeSig:mean 	1.7666666666667
scalar Network.dyn_peer[81] 	lookupStabilitySig:mean 	0.70678048022091
scalar Network.dyn_peer[81] 	lookupHopsSig:mean 	16.833333333333
scalar Network.dyn_peer[82] 	lookupTimeSig:mean 	1.3555555555556
scalar Network.dyn_peer[82] 	lookupStabilitySig:mean 	0.64363512479597
scalar Network.dyn_peer[82] 	lookupHopsSig:mean 	12.666666666667
scalar Network.dyn_peer[83] 	lookupTimeSig:mean 	2.1
scalar Network.dyn_peer[83] 	lookupStabilitySig:mean 	0.058063755432765
scalar Network.dyn_peer[83] 	lookupHopsSig:mean 	20.333333333333
scalar Network.dyn_peer[84] 	lookupTimeSig:mean 	1.6333333333333
scalar Network.dyn_peer[84] 	lookupStabilitySig:mean 	0.44650473259389
scalar Network.dyn_peer[84] 	lookupHopsSig:mean 	15.5
scalar Network.dyn_peer[85] 	lookupTimeSig:mean 	1.3833333333333
scalar Network.dyn_peer[85] 	lookupStabilitySig:mean 	0.40804713886852
scalar Network.dyn_peer[85] 	lookupHopsSig:mean 	13
scalar Network.dyn_peer[86] 	lookupTimeSig:mean 	1.7875
scalar Network.dyn_peer[86] 	lookupStabilitySig:mean 	0.88110159267671
scalar Network.dyn_peer[86] 	lookupHopsSig:mean 	17
scalar Network.dyn_peer[87] 	lookupTimeSig:mean 	1.625
scalar Network.dyn_peer[87] 	lookupStabilitySig:mean 	0.280584088061
scalar Network.dyn_peer[87] 	lookupHopsSig:mean 	15.5
scalar Network.dyn_peer[88] 	lookupTimeSig:mean 	2.675
scalar Network.dyn_peer[88] 	lookupStabilitySig:mean 	0.79686745651998
scalar Network.dyn_peer[88] 	lookupHopsSig:mean 	26
scalar Network.dyn_peer[89] 	lookupTimeSig:mean 	1.88
scalar Network.dyn_peer[89] 	lookupStabilitySig:mean 	0.32402238100767
scalar Network.dyn_peer[89] 	lookupHopsSig:mean 	18
scalar Network.dyn_peer[90] 	lookupTimeSig:mean 	1.225
scalar Network.dyn_peer[90] 	lookupStabilitySig:mean 	0.82356421034395
scalar Network.dyn_peer[90] 	lookupHopsSig:mean 	11.333333333333
scalar Network.dyn_peer[91] 	lookupTimeSig:mean 	2.02
scalar Network.dyn_peer[91] 	lookupStabilitySig:mean 	0.84966115816496
scalar Network.dyn_peer[91] 	lookupHopsSig:mean 	19.3
scalar Network.dyn_peer[92] 	lookupTimeSig:mean 	2.4
scalar Network.dyn_peer[92] 	lookupStabilitySig:mean 	0.62796554304659
scalar Network.dyn_peer[92] 	lookupHopsSig:mean 	23.2
scalar Network.dyn_peer[93] 	lookupTimeSig:mean 	1.425
scalar Network.dyn_peer[93] 	lookupStabilitySig:mean 	0.73839167971164
scalar Network.dyn_peer[93] 	lookupHopsSig:mean 	13.5
scalar Network.dyn_peer[94] 	lookupTimeSig:mean 	1.4555555555556
scalar Network.dyn_peer[94] 	lookupStabilitySig:mean 	0.65619987073458
scalar Network.dyn_peer[94] 	lookupHopsSig:mean 	13.666666666667
scalar Network.dyn_peer[95] 	lookupTimeSig:mean 	1.65
scalar Network.dyn_peer[95] 	lookupStabilitySig:mean 	0.46841171104461
scalar Network.dyn_peer[95] 	lookupHopsSig:mean 	15.75
scalar Network.dyn_peer[96] 	lookupTimeSig:mean 	1.86
scalar Network.dyn_peer[96] 	lookupStabilitySig:mean 	0.58731828145683
scalar Network.dyn_peer[96] 	lookupHopsSig:mean 	17.8
scalar Network.dyn_peer[97] 	lookupTimeSig:mean 	1.5
scalar Network.dyn_peer[97] 	lookupStabilitySig:mean 	0.6650350086645
scalar Network.dyn_peer[97] 	lookupHopsSig:mean 	14.090909090909
scalar Network.dyn_peer[98] 	lookupTimeSig:mean 	1.45
scalar Network.dyn_peer[98] 	lookupStabilitySig:mean 	0.19089122861624
scalar Network.dyn_peer[98] 	lookupHopsSig:mean 	13.75
scalar Network.dyn_peer[99] 	lookupTimeSig:mean 	1.7166666666667
scalar Network.dyn_peer[99] 	lookupStabilitySig:mean 	0.54929362998034
scalar Network.dyn_peer[99] 	lookupHopsSig:mean 	16.333333333333
scalar Network.dyn_peer[100] 	lookupTimeSig:mean 	1.3666666666667
scalar Network.dyn_peer[100] 	lookupStabilitySig:mean 	-0.098360657691956
scalar Network.dyn_peer[100] 	lookupHopsSig:mean 	13
scalar Network.dyn_peer[101] 	lookupTimeSig:mean 	2.1714285714286
scalar Network.dyn_peer[101] 	lookupStabilitySig:mean 	0.89680803753436
scalar Network.dyn_peer[101] 	lookupHopsSig:mean 	20.857142857143
scalar Network.dyn_peer[102] 	lookupTimeSig:mean 	1.2666666666667
scalar Network.dyn_peer[102] 	lookupStabilitySig:mean 	0.64812429994345
scalar Network.dyn_peer[102] 	lookupHopsSig:mean 	11.833333333333
scalar Network.dyn_peer[103] 	lookupTimeSig:mean 	2.0444444444444
scalar Network.dyn_peer[103] 	lookupStabilitySig:mean 	0.9106221632618
scalar Network.dyn_peer[103] 	lookupHopsSig:mean 	19.555555555556
scalar Network.dyn_peer[104] 	lookupTimeSig:mean 	2.0818181818182
scalar Network.dyn_peer[104] 	lookupStabilitySig:mean 	0.96584853125651
scalar Network.dyn_peer[104] 	lookupHopsSig:mean 	19.909090909091
scalar Network.dyn_peer[105] 	lookupTimeSig:mean 	2.78
scalar Network.dyn_peer[105] 	lookupStabilitySig:mean 	0.7085815988481
scalar Network.dyn_peer[105] 	lookupHopsSig:mean 	27
scalar Network.dyn_peer[106] 	lookupTimeSig:mean 	1.6083333333333
scalar Network.dyn_peer[106] 	lookupStabilitySig:mean 	0.897394527914
scalar Network.dyn_peer[106] 	lookupHopsSig:mean 	15.166666666667
scalar Network.dyn_peer[107] 	lookupTimeSig:mean 	1.5666666666667
scalar Network.dyn_peer[107] 	lookupStabilitySig:mean 	0.78869301463581
scalar Network.dyn_peer[107] 	lookupHopsSig:mean 	14.777777777778
scalar Network.dyn_peer[108] 	lookupTimeSig:mean 	2.7166666666667
scalar Network.dyn_peer[108] 	lookupStabilitySig:mean 	0.49445167401185
scalar Network.dyn_peer[108] 	lookupHopsSig:mean 	26.333333333333
scalar Network.dyn_peer[109] 	lookupTimeSig:mean 	2.0142857142857
scalar Network.dyn_peer[109] 	lookupStabilitySig:mean 	0.90685140594308
scalar Network.dyn_peer[109] 	lookupHopsSig:mean 	19.285714285714
scalar Network.dyn_peer[110] 	lookupTimeSig:mean 	1.9857142857143
scalar Network.dyn_peer[110] 	lookupStabilitySig:mean 	0.8975063602307
scalar Network.dyn_peer[110] 	lookupHopsSig:mean 	19
scalar Network.dyn_peer[111] 	lookupTimeSig:mean 	1.54
scalar Network.dyn_peer[111] 	lookupStabilitySig:mean 	0.66678085131571
scalar Network.dyn_peer[111] 	lookupHopsSig:mean 	14.5
scalar Network.dyn_peer[112] 	lookupTimeSig:mean 	2.975
scalar Network.dyn_peer[112] 	lookupStabilitySig:mean 	0.39980118442327
scalar Network.dyn_peer[112] 	lookupHopsSig:mean 	29
scalar Network.dyn_peer[113] 	lookupTimeSig:mean 	1.8666666666667
scalar Network.dyn_peer[113] 	lookupStabilitySig:mean 	-0.082706789175669
scalar Network.dyn_peer[113] 	lookupHopsSig:mean 	18
scalar Network.dyn_peer[114] 	lookupTimeSig:mean 	2.58
scalar Network.dyn_peer[114] 	lookupStabilitySig:mean 	0.67890451699495
scalar Network.dyn_peer[114] 	lookupHopsSig:mean 	25
scalar Network.dyn_peer[115] 	lookupTimeSig:mean 	1.6
scalar Network.dyn_peer[115] 	lookupStabilitySig:mean 	0.88741547905374
scalar Network.dyn_peer[115] 	lookupHopsSig:mean 	15.125
scalar Network.dyn_peer[116] 	lookupTimeSig:mean 	2.6666666666667
scalar Network.dyn_peer[116] 	lookupStabilitySig:mean 	0.30694441994031
scalar Network.dyn_peer[116] 	lookupHopsSig:mean 	26
scalar Network.dyn_peer[117] 	lookupTimeSig:mean 	1.33125
scalar Network.dyn_peer[117] 	lookupStabilitySig:mean 	0.93652396695688
scalar Network.dyn_peer[117] 	lookupHopsSig:mean 	12.375
scalar Network.dyn_peer[118] 	lookupTimeSig:mean 	1.8222222222222
scalar Network.dyn_peer[118] 	lookupStabilitySig:mean 	0.73021061656376
scalar Network.dyn_peer[118] 	lookupHopsSig:mean 	17.333333333333
scalar Network.dyn_peer[119] 	lookupTimeSig:mean 	1.2
scalar Network.dyn_peer[119] 	lookupStabilitySig:mean 	0.34699247777462
scalar Network.dyn_peer[119] 	lookupHopsSig:mean 	11.25
scalar Network.dyn_peer[120] 	lookupTimeSig:mean 	2.9333333333333
scalar Network.dyn_peer[120] 	lookupStabilitySig:mean 	0.35239431013664
scalar Network.dyn_peer[120] 	lookupHopsSig:mean 	28.666666666667
scalar Network.dyn_peer[121] 	lookupTimeSig:mean 	1.125
scalar Network.dyn_peer[121] 	lookupStabilitySig:mean 	0.15113242715597
scalar Network.dyn_peer[121] 	lookupHopsSig:mean 	10.5
scalar Network.dyn_peer[122] 	lookupTimeSig:mean 	2.1
scalar Network.dyn_peer[122] 	lookupStabilitySig:mean 	0.89002561476082
scalar Network.dyn_peer[122] 	lookupHopsSig:mean 	20.166666666667
scalar Network.dyn_peer[123] 	lookupTimeSig:mean 	3.5
scalar Network.dyn_peer[123] 	lookupStabilitySig:mean 	0.65887342393398
scalar Network.dyn_peer[123] 	lookupHopsSig:mean 	34.5
scalar Network.dyn_peer[124] 	lookupTimeSig:mean 	2.22
scalar Network.dyn_peer[124] 	lookupStabilitySig:mean 	0.62879363335669
scalar Network.dyn_peer[124] 	lookupHopsSig:mean 	21.4
scalar Network.dyn_peer[125] 	lookupTimeSig:mean 	1.45
scalar Network.dyn_peer[125] 	lookupStabilitySig:mean 	0.21323230862617
scalar Network.dyn_peer[125] 	lookupHopsSig:mean 	13.75
scalar Network.dyn_peer[126] 	lookupTimeSig:mean 	1.9375
scalar Network.dyn_peer[126] 	lookupStabilitySig:mean 	0.63036080810707
scalar Network.dyn_peer[126] 	lookupHopsSig:mean 	18.5
scalar Network.dyn_peer[127] 	lookupTimeSig:mean 	1.3666666666667
scalar Network.dyn_peer[127] 	lookupStabilitySig:mean 	0.35729848841826
scalar Network.dyn_peer[127] 	lookupHopsSig:mean 	13
scalar Network.dyn_peer[128] 	lookupTimeSig:mean 	1.9
scalar Network.dyn_peer[128] 	lookupStabilitySig:mean 	0.51550390260915
scalar Network.dyn_peer[128] 	lookupHopsSig:mean 	18.166666666667
scalar Network.dyn_peer[129] 	lookupTimeSig:mean 	3.3
scalar Network.dyn_peer[129] 	lookupStabilitySig:mean 	0.11666665971279
scalar Network.dyn_peer[129] 	lookupHopsSig:mean 	32.5
scalar Network.dyn_peer[130] 	lookupTimeSig:mean 	1.8272727272727
scalar Network.dyn_peer[130] 	lookupStabilitySig:mean 	0.82766178347678
scalar Network.dyn_peer[130] 	lookupHopsSig:mean 	17.363636363636
scalar Network.dyn_peer[131] 	lookupTimeSig:mean 	2
scalar Network.dyn_peer[131] 	lookupStabilitySig:mean 	0.66485066671989
scalar Network.dyn_peer[131] 	lookupHopsSig:mean 	19.142857142857
scalar Network.dyn_peer[132] 	lookupTimeSig:mean 	1.15
scalar Network.dyn_peer[132] 	lookupStabilitySig:mean 	0.56752067059278
scalar Network.dyn_peer[132] 	lookupHopsSig:mean 	10.666666666667
scalar Network.dyn_peer[133] 	lookupTimeSig:mean 	2.28
scalar Network.dyn_peer[133] 	lookupStabilitySig:mean 	0.51813366785645
scalar Network.dyn_peer[133] 	lookupHopsSig:mean 	22
scalar Network.dyn_peer[134] 	lookupTimeSig:mean 	2.3
scalar Network.dyn_peer[134] 	lookupStabilitySig:mean 	0.75395697467029
scalar Network.dyn_peer[134] 	lookupHopsSig:mean 	22.2
scalar Network.dyn_peer[135] 	lookupTimeSig:mean 	2.5
scalar Network.dyn_peer[135] 	lookupStabilitySig:mean 	0.93933387925582
scalar Network.dyn_peer[135] 	lookupHopsSig:mean 	24.142857142857
scalar Network.dyn_peer[136] 	lookupTimeSig:mean 	2.475
scalar Network.dyn_peer[136] 	lookupStabilitySig:mean 	0.15293448790908
scalar Network.dyn_peer[136] 	lookupHopsSig:mean 	24
scalar Network.dyn_peer[137] 	lookupTimeSig:mean 	1.65
scalar Network.dyn_peer[137] 	lookupStabilitySig:mean 	0.42011738196015
scalar Network.dyn_peer[137] 	lookupHopsSig:mean 	15.75
scalar Network.dyn_peer[138] 	lookupTimeSig:mean 	1.0444444444444
scalar Network.dyn_peer[138] 	lookupStabilitySig:mean 	0.65488601297451
scalar Network.dyn_peer[138] 	lookupHopsSig:mean 	9.5555555555556
scalar Network.dyn_peer[139] 	lookupTimeSig:mean 	2.45
scalar Network.dyn_peer[139] 	lookupStabilitySig:mean 	0.94517698057462
scalar Network.dyn_peer[139] 	lookupHopsSig:mean 	23.625
scalar Network.dyn_peer[140] 	lookupTimeSig:mean 	1.7833333333333
scalar Network.dyn_peer[140] 	lookupStabilitySig:mean 	0.88456551171839
scalar Network.dyn_peer[140] 	lookupHopsSig:mean 	17
scalar Network.dyn_peer[141] 	lookupTimeSig:mean 	1.68
scalar Network.dyn_peer[141] 	lookupStabilitySig:mean 	0.83415039163083
scalar Network.dyn_peer[141] 	lookupHopsSig:mean 	16
scalar Network.dyn_peer[142] 	lookupTimeSig:mean 	2.62
scalar Network.dyn_peer[142] 	lookupStabilitySig:mean 	0.35023351479322
scalar Network.dyn_peer[142] 	lookupHopsSig:mean 	25.4
scalar Network.dyn_peer[143] 	lookupTimeSig:mean 	1.7857142857143
scalar Network.dyn_peer[143] 	lookupStabilitySig:mean 	0.86660844034382
scalar Network.dyn_peer[143] 	lookupHopsSig:mean 	17
scalar Network.dyn_peer[144] 	lookupTimeSig:mean 	1.7
scalar Network.dyn_peer[144] 	lookupStabilitySig:mean 	0.052076850086451
scalar Network.dyn_peer[144] 	lookupHopsSig:mean 	16.25
scalar Network.dyn_peer[145] 	lookupTimeSig:mean 	1.32
scalar Network.dyn_peer[145] 	lookupStabilitySig:mean 	0.38750377595425
scalar Network.dyn_peer[145] 	lookupHopsSig:mean 	12.4
scalar Network.dyn_peer[146] 	lookupTimeSig:mean 	1.5666666666667
scalar Network.dyn_peer[146] 	lookupStabilitySig:mean 	0.87333010385434
scalar Network.dyn_peer[146] 	lookupHopsSig:mean 	14.75
scalar Network.dyn_peer[147] 	lookupTimeSig:mean 	2.1181818181818
scalar Network.dyn_peer[147] 	lookupStabilitySig:mean 	0.8955489216711
scalar Network.dyn_peer[147] 	lookupHopsSig:mean 	20.272727272727
scalar Network.dyn_peer[148] 	lookupTimeSig:mean 	3.05
scalar Network.dyn_peer[148] 	lookupStabilitySig:mean 	0.79336945340037
scalar Network.dyn_peer[148] 	lookupHopsSig:mean 	29.75
scalar Network.dyn_peer[149] 	lookupTimeSig:mean 	1.7181818181818
scalar Network.dyn_peer[149] 	lookupStabilitySig:mean 	0.83735199018636
scalar Network.dyn_peer[149] 	lookupHopsSig:mean 	16.272727272727
scalar Network.dyn_peer[150] 	lookupTimeSig:mean 	2.5
scalar Network.dyn_peer[150] 	lookupStabilitySig:mean 	0.56732672452927
scalar Network.dyn_peer[150] 	lookupHopsSig:mean 	24.5
scalar Network.dyn_peer[151] 	lookupTimeSig:mean 	1.5461538461538
scalar Network.dyn_peer[151] 	lookupStabilitySig:mean 	0.80477244313806
scalar Network.dyn_peer[151] 	lookupHopsSig:mean 	14.538461538462
scalar Network.dyn_peer[152] 	lookupTimeSig:mean 	2.1666666666667
scalar Network.dyn_peer[152] 	lookupStabilitySig:mean 	0.47623959680398
scalar Network.dyn_peer[152] 	lookupHopsSig:mean 	21
scalar Network.dyn_peer[153] 	lookupTimeSig:mean 	3.075
scalar Network.dyn_peer[153] 	lookupStabilitySig:mean 	0.80502268113196
scalar Network.dyn_peer[153] 	lookupHopsSig:mean 	30
scalar Network.dyn_peer[154] 	lookupTimeSig:mean 	2.8
scalar Network.dyn_peer[154] 	lookupStabilitySig:mean 	0.38211183622479
scalar Network.dyn_peer[154] 	lookupHopsSig:mean 	27.25
scalar Network.dyn_peer[155] 	lookupTimeSig:mean 	2.44
scalar Network.dyn_peer[155] 	lookupStabilitySig:mean 	0.62072084210813
scalar Network.dyn_peer[155] 	lookupHopsSig:mean 	23.6
scalar Network.dyn_peer[156] 	lookupTimeSig:mean 	1.24
scalar Network.dyn_peer[156] 	lookupStabilitySig:mean 	0.3568621635437
scalar Network.dyn_peer[156] 	lookupHopsSig:mean 	11.6
scalar Network.dyn_peer[157] 	lookupTimeSig:mean 	1.825
scalar Network.dyn_peer[157] 	lookupStabilitySig:mean 	0.54795314976946
scalar Network.dyn_peer[157] 	lookupHopsSig:mean 	17.375
scalar Network.dyn_peer[158] 	lookupTimeSig:mean 	1.8
scalar Network.dyn_peer[158] 	lookupStabilitySig:mean 	0.75174964206027
scalar Network.dyn_peer[158] 	lookupHopsSig:mean 	17.071428571429
scalar Network.dyn_peer[159] 	lookupTimeSig:mean 	1.65
scalar Network.dyn_peer[159] 	lookupStabilitySig:mean 	-0.53571426868439
scalar Network.dyn_peer[159] 	lookupHopsSig:mean 	16
scalar Network.dyn_peer[160] 	lookupTimeSig:mean 	2.4
scalar Network.dyn_peer[160] 	lookupStabilitySig:mean 	-0.065590143203735
scalar Network.dyn_peer[160] 	lookupHopsSig:mean 	23.333333333333
scalar Network.dyn_peer[161] 	lookupTimeSig:mean 	1.05
scalar Network.dyn_peer[161] 	lookupStabilitySig:mean 	0.70522041972727
scalar Network.dyn_peer[161] 	lookupHopsSig:mean 	9.6
scalar Network.dyn_peer[162] 	lookupTimeSig:mean 	1.675
scalar Network.dyn_peer[162] 	lookupStabilitySig:mean 	0.37635138258338
scalar Network.dyn_peer[162] 	lookupHopsSig:mean 	16
scalar Network.dyn_peer[163] 	lookupTimeSig:mean 	1.75
scalar Network.dyn_peer[163] 	lookupStabilitySig:mean 	0.41732539609075
scalar Network.dyn_peer[163] 	lookupHopsSig:mean 	16.75
scalar Network.dyn_peer[164] 	lookupTimeSig:mean 	1.1333333333333
scalar Network.dyn_peer[164] 	lookupStabilitySig:mean 	0.068542564908663
scalar Network.dyn_peer[164] 	lookupHopsSig:mean 	10.666666666667
scalar Network.dyn_peer[165] 	lookupTimeSig:mean 	1.2266666666667
scalar Network.dyn_peer[165] 	lookupStabilitySig:mean 	0.95962334872844
scalar Network.dyn_peer[165] 	lookupHopsSig:mean 	11.333333333333
scalar Network.dyn_peer[166] 	lookupTimeSig:mean 	2.175
scalar Network.dyn_peer[166] 	lookupStabilitySig:mean 	0.84870616625994
scalar Network.dyn_peer[166] 	lookupHopsSig:mean 	21
scalar Network.dyn_peer[167] 	lookupTimeSig:mean 	1.2777777777778
scalar Network.dyn_peer[167] 	lookupStabilitySig:mean 	0.84080156828794
scalar Network.dyn_peer[167] 	lookupHopsSig:mean 	11.888888888889
scalar Network.dyn_peer[168] 	lookupTimeSig:mean 	1.3666666666667
scalar Network.dyn_peer[168] 	lookupStabilitySig:mean 	0.29226190845172
scalar Network.dyn_peer[168] 	lookupHopsSig:mean 	13
scalar Network.dyn_peer[169] 	lookupTimeSig:mean 	2.8
scalar Network.dyn_peer[169] 	lookupStabilitySig:mean 	0.80030508190393
scalar Network.dyn_peer[169] 	lookupHopsSig:mean 	27.2
scalar Network.dyn_peer[170] 	lookupTimeSig:mean 	1.92
scalar Network.dyn_peer[170] 	lookupStabilitySig:mean 	0.7954099226743
scalar Network.dyn_peer[170] 	lookupHopsSig:mean 	18.4
scalar Network.dyn_peer[171] 	lookupTimeSig:mean 	2.05
scalar Network.dyn_peer[171] 	lookupStabilitySig:mean 	0.14997397363186
scalar Network.dyn_peer[171] 	lookupHopsSig:mean 	19.75
scalar Network.dyn_peer[172] 	lookupTimeSig:mean 	1.975
scalar Network.dyn_peer[172] 	lookupStabilitySig:mean 	0.8057974417073
scalar Network.dyn_peer[172] 	lookupHopsSig:mean 	18.833333333333
scalar Network.dyn_peer[173] 	lookupTimeSig:mean 	1.4083333333333
scalar Network.dyn_peer[173] 	lookupStabilitySig:mean 	0.73044931869178
scalar Network.dyn_peer[173] 	lookupHopsSig:mean 	13.166666666667
scalar Network.dyn_peer[174] 	lookupTimeSig:mean 	2.24
scalar Network.dyn_peer[174] 	lookupStabilitySig:mean 	0.95397724332288
scalar Network.dyn_peer[174] 	lookupHopsSig:mean 	21.5
scalar Network.dyn_peer[175] 	lookupTimeSig:mean 	1.8571428571429
scalar Network.dyn_peer[175] 	lookupStabilitySig:mean 	0.70753155302789
scalar Network.dyn_peer[175] 	lookupHopsSig:mean 	17.714285714286
scalar Network.dyn_peer[176] 	lookupTimeSig:mean 	1.65
scalar Network.dyn_peer[176] 	lookupStabilitySig:mean 	0.3465365357697
scalar Network.dyn_peer[176] 	lookupHopsSig:mean 	15.75
scalar Network.dyn_peer[177] 	lookupTimeSig:mean 	1.98
scalar Network.dyn_peer[177] 	lookupStabilitySig:mean 	0.83689286746085
scalar Network.dyn_peer[177] 	lookupHopsSig:mean 	19
scalar Network.dyn_peer[178] 	lookupTimeSig:mean 	2.5
scalar Network.dyn_peer[178] 	lookupStabilitySig:mean 	0.095700586835543
scalar Network.dyn_peer[178] 	lookupHopsSig:mean 	24.333333333333
scalar Network.dyn_peer[179] 	lookupTimeSig:mean 	1.5714285714286
scalar Network.dyn_peer[179] 	lookupStabilitySig:mean 	0.93272382420089
scalar Network.dyn_peer[179] 	lookupHopsSig:mean 	14.785714285714
scalar Network.dyn_peer[180] 	lookupTimeSig:mean 	1.5625
scalar Network.dyn_peer[180] 	lookupStabilitySig:mean 	0.65485481428914
scalar Network.dyn_peer[180] 	lookupHopsSig:mean 	14.75
scalar Network.dyn_peer[181] 	lookupTimeSig:mean 	3
scalar Network.dyn_peer[181] 	lookupStabilitySig:mean 	0.22981856856495
scalar Network.dyn_peer[181] 	lookupHopsSig:mean 	29.25
scalar Network.dyn_peer[182] 	lookupTimeSig:mean 	1.96
scalar Network.dyn_peer[182] 	lookupStabilitySig:mean 	0.61564167980105
scalar Network.dyn_peer[182] 	lookupHopsSig:mean 	18.8
scalar Network.dyn_peer[183] 	lookupTimeSig:mean 	3.1333333333333
scalar Network.dyn_peer[183] 	lookupStabilitySig:mean 	0.62478610252341
scalar Network.dyn_peer[183] 	lookupHopsSig:mean 	30.666666666667
scalar Network.dyn_peer[184] 	lookupTimeSig:mean 	2.48
scalar Network.dyn_peer[184] 	lookupStabilitySig:mean 	0.89342812150717
scalar Network.dyn_peer[184] 	lookupHopsSig:mean 	24
scalar Network.dyn_peer[185] 	lookupTimeSig:mean 	2.8
scalar Network.dyn_peer[185] 	lookupStabilitySig:mean 	0.76564134533207
scalar Network.dyn_peer[185] 	lookupHopsSig:mean 	27.333333333333
scalar Network.dyn_peer[186] 	lookupTimeSig:mean 	1.78
scalar Network.dyn_peer[186] 	lookupStabilitySig:mean 	0.40915093794465
scalar Network.dyn_peer[186] 	lookupHopsSig:mean 	17
scalar Network.dyn_peer[187] 	lookupTimeSig:mean 	1.5363636363636
scalar Network.dyn_peer[187] 	lookupStabilitySig:mean 	0.74067407507788
scalar Network.dyn_peer[187] 	lookupHopsSig:mean 	14.454545454545
scalar Network.dyn_peer[188] 	lookupTimeSig:mean 	2.525
scalar Network.dyn_peer[188] 	lookupStabilitySig:mean 	0.32023890130222
scalar Network.dyn_peer[188] 	lookupHopsSig:mean 	24.5
scalar Network.dyn_peer[189] 	lookupTimeSig:mean 	1.64
scalar Network.dyn_peer[189] 	lookupStabilitySig:mean 	0.42040329501033
scalar Network.dyn_peer[189] 	lookupHopsSig:mean 	15.6
scalar Network.dyn_peer[190] 	lookupTimeSig:mean 	2.6
scalar Network.dyn_peer[190] 	lookupStabilitySig:mean 	0.71279730927199
scalar Network.dyn_peer[190] 	lookupHopsSig:mean 	25.25
scalar Network.dyn_peer[191] 	lookupTimeSig:mean 	2.3
scalar Network.dyn_peer[191] 	lookupStabilitySig:mean 	0.63059202134609
scalar Network.dyn_peer[191] 	lookupHopsSig:mean 	22.2
scalar Network.dyn_peer[192] 	lookupTimeSig:mean 	5.75
scalar Network.dyn_peer[192] 	lookupStabilitySig:mean 	0.85817175917327
scalar Network.dyn_peer[192] 	lookupHopsSig:mean 	57
scalar Network.dyn_peer[193] 	lookupTimeSig:mean 	1.76
scalar Network.dyn_peer[193] 	lookupStabilitySig:mean 	0.85206824168563
scalar Network.dyn_peer[193] 	lookupHopsSig:mean 	16.8
scalar Network.dyn_peer[194] 	lookupTimeSig:mean 	2.3333333333333
scalar Network.dyn_peer[194] 	lookupStabilitySig:mean 	0.38867102563381
scalar Network.dyn_peer[194] 	lookupHopsSig:mean 	22.666666666667
scalar Network.dyn_peer[195] 	lookupTimeSig:mean 	5.9666666666667
scalar Network.dyn_peer[195] 	lookupStabilitySig:mean 	0.92249426494042
scalar Network.dyn_peer[195] 	lookupHopsSig:mean 	59
scalar Network.dyn_peer[196] 	lookupTimeSig:mean 	2.03
scalar Network.dyn_peer[196] 	lookupStabilitySig:mean 	0.86880550347269
scalar Network.dyn_peer[196] 	lookupHopsSig:mean 	19.4
scalar Network.dyn_peer[197] 	lookupTimeSig:mean 	2.1833333333333
scalar Network.dyn_peer[197] 	lookupStabilitySig:mean 	0.41659502390151
scalar Network.dyn_peer[197] 	lookupHopsSig:mean 	21
scalar Network.dyn_peer[198] 	lookupTimeSig:mean 	2.0846153846154
scalar Network.dyn_peer[198] 	lookupStabilitySig:mean 	0.93772389209614
scalar Network.dyn_peer[198] 	lookupHopsSig:mean 	19.923076923077
scalar Network.dyn_peer[199] 	lookupTimeSig:mean 	1.5571428571429
scalar Network.dyn_peer[199] 	lookupStabilitySig:mean 	0.52795121446252
scalar Network.dyn_peer[199] 	lookupHopsSig:mean 	14.714285714286
scalar Network.dyn_peer[200] 	lookupTimeSig:mean 	1.8
scalar Network.dyn_peer[200] 	lookupStabilitySig:mean 	0.23602063208818
scalar Network.dyn_peer[200] 	lookupHopsSig:mean 	17.25
scalar Network.dyn_peer[201] 	lookupTimeSig:mean 	1.675
scalar Network.dyn_peer[201] 	lookupStabilitySig:mean 	0.60887427954003
scalar Network.dyn_peer[201] 	lookupHopsSig:mean 	15.875
scalar Network.dyn_peer[202] 	lookupTimeSig:mean 	1.78
scalar Network.dyn_peer[202] 	lookupStabilitySig:mean 	0.53238094896078
scalar Network.dyn_peer[202] 	lookupHopsSig:mean 	17
scalar Network.dyn_peer[203] 	lookupTimeSig:mean 	5.1
scalar Network.dyn_peer[203] 	lookupStabilitySig:mean 	0.82456683367491
scalar Network.dyn_peer[203] 	lookupHopsSig:mean 	50.5
scalar Network.dyn_peer[204] 	lookupTimeSig:mean 	1.4666666666667
scalar Network.dyn_peer[204] 	lookupStabilitySig:mean 	-0.1387281169494
scalar Network.dyn_peer[204] 	lookupHopsSig:mean 	14
scalar Network.dyn_peer[205] 	lookupTimeSig:mean 	1.8555555555556
scalar Network.dyn_peer[205] 	lookupStabilitySig:mean 	0.93875023701953
scalar Network.dyn_peer[205] 	lookupHopsSig:mean 	17.666666666667
scalar Network.dyn_peer[206] 	lookupTimeSig:mean 	1.6142857142857
scalar Network.dyn_peer[206] 	lookupStabilitySig:mean 	0.73859469832054
scalar Network.dyn_peer[206] 	lookupHopsSig:mean 	15.285714285714
scalar Network.dyn_peer[207] 	lookupTimeSig:mean 	0.86666666666667
scalar Network.dyn_peer[207] 	lookupStabilitySig:mean 	-0.020634929339091
scalar Network.dyn_peer[207] 	lookupHopsSig:mean 	8
scalar Network.dyn_peer[208] 	lookupTimeSig:mean 	2.75
scalar Network.dyn_peer[208] 	lookupStabilitySig:mean 	0.29066166840494
scalar Network.dyn_peer[208] 	lookupHopsSig:mean 	26.75
scalar Network.dyn_peer[209] 	lookupTimeSig:mean 	2.1
scalar Network.dyn_peer[209] 	lookupStabilitySig:mean 	0.94366155558133
scalar Network.dyn_peer[209] 	lookupHopsSig:mean 	20.142857142857
scalar Network.dyn_peer[210] 	lookupTimeSig:mean 	1.78
scalar Network.dyn_peer[210] 	lookupStabilitySig:mean 	0.50997208319604
scalar Network.dyn_peer[210] 	lookupHopsSig:mean 	17
scalar Network.dyn_peer[211] 	lookupTimeSig:mean 	1.5444444444444
scalar Network.dyn_peer[211] 	lookupStabilitySig:mean 	0.66602599900216
scalar Network.dyn_peer[211] 	lookupHopsSig:mean 	14.555555555556
scalar Network.dyn_peer[212] 	lookupTimeSig:mean 	2.75
scalar Network.dyn_peer[212] 	lookupStabilitySig:mean 	0.60303029417992
scalar Network.dyn_peer[212] 	lookupHopsSig:mean 	27
scalar Network.dyn_peer[213] 	lookupTimeSig:mean 	1.95
scalar Network.dyn_peer[213] 	lookupStabilitySig:mean 	0.88461658296486
scalar Network.dyn_peer[213] 	lookupHopsSig:mean 	18.666666666667
scalar Network.dyn_peer[214] 	lookupTimeSig:mean 	1.15
scalar Network.dyn_peer[214] 	lookupStabilitySig:mean 	0.24992898013443
scalar Network.dyn_peer[214] 	lookupHopsSig:mean 	10.75
scalar Network.dyn_peer[215] 	lookupTimeSig:mean 	2.3071428571429
scalar Network.dyn_peer[215] 	lookupStabilitySig:mean 	0.96687683107198
scalar Network.dyn_peer[215] 	lookupHopsSig:mean 	22.142857142857
scalar Network.dyn_peer[216] 	lookupTimeSig:mean 	1.08
scalar Network.dyn_peer[216] 	lookupStabilitySig:mean 	0.66230932027102
scalar Network.dyn_peer[216] 	lookupHopsSig:mean 	10
scalar Network.dyn_peer[217] 	lookupTimeSig:mean 	2.6666666666667
scalar Network.dyn_peer[217] 	lookupStabilitySig:mean 	0.92534527275711
scalar Network.dyn_peer[217] 	lookupHopsSig:mean 	25.833333333333
scalar Network.dyn_peer[218] 	lookupTimeSig:mean 	1.5
scalar Network.dyn_peer[218] 	lookupStabilitySig:mean 	0.85000676648425
scalar Network.dyn_peer[218] 	lookupHopsSig:mean 	14.142857142857
scalar Network.dyn_peer[219] 	lookupTimeSig:mean 	1.8666666666667
scalar Network.dyn_peer[219] 	lookupStabilitySig:mean 	0.086557852725188
scalar Network.dyn_peer[219] 	lookupHopsSig:mean 	18
scalar Network.dyn_peer[220] 	lookupTimeSig:mean 	1.6888888888889
scalar Network.dyn_peer[220] 	lookupStabilitySig:mean 	0.82733771629218
scalar Network.dyn_peer[220] 	lookupHopsSig:mean 	16
scalar Network.dyn_peer[221] 	lookupTimeSig:mean 	1.7
scalar Network.dyn_peer[221] 	lookupStabilitySig:mean 	0.91398827957788
scalar Network.dyn_peer[221] 	lookupHopsSig:mean 	16.142857142857
scalar Network.dyn_peer[222] 	lookupTimeSig:mean 	2.14
scalar Network.dyn_peer[222] 	lookupStabilitySig:mean 	0.8462368234992
scalar Network.dyn_peer[222] 	lookupHopsSig:mean 	20.6
scalar Network.dyn_peer[223] 	lookupTimeSig:mean 	2.1
scalar Network.dyn_peer[223] 	lookupStabilitySig:mean 	0.95345281292167
scalar Network.dyn_peer[223] 	lookupHopsSig:mean 	20.111111111111
scalar Network.dyn_peer[224] 	lookupTimeSig:mean 	2.5428571428571
scalar Network.dyn_peer[224] 	lookupStabilitySig:mean 	0.94499818554946
scalar Network.dyn_peer[224] 	lookupHopsSig:mean 	24.571428571429
scalar Network.dyn_peer[225] 	lookupTimeSig:mean 	1.98
scalar Network.dyn_peer[225] 	lookupStabilitySig:mean 	0.8302177907899
scalar Network.dyn_peer[225] 	lookupHopsSig:mean 	19
scalar Network.dyn_peer[226] 	lookupTimeSig:mean 	2.18
scalar Network.dyn_peer[226] 	lookupStabilitySig:mean 	0.74873582273722
scalar Network.dyn_peer[226] 	lookupHopsSig:mean 	21
scalar Network.dyn_peer[227] 	lookupTimeSig:mean 	1.1
scalar Network.dyn_peer[227] 	lookupStabilitySig:mean 	0.72100366434703
scalar Network.dyn_peer[227] 	lookupHopsSig:mean 	10.166666666667
scalar Network.dyn_peer[228] 	lookupTimeSig:mean 	2.4333333333333
scalar Network.dyn_peer[228] 	lookupStabilitySig:mean 	0.075947180390358
scalar Network.dyn_peer[228] 	lookupHopsSig:mean 	23.666666666667
scalar Network.dyn_peer[229] 	lookupTimeSig:mean 	1.5384615384615
scalar Network.dyn_peer[229] 	lookupStabilitySig:mean 	0.85168937514894
scalar Network.dyn_peer[229] 	lookupHopsSig:mean 	14.461538461538
scalar Network.dyn_peer[230] 	lookupTimeSig:mean 	0.625
scalar Network.dyn_peer[230] 	lookupStabilitySig:mean 	0.28354976698756
scalar Network.dyn_peer[230] 	lookupHopsSig:mean 	5.5
scalar Network.dyn_peer[231] 	lookupTimeSig:mean 	1.6
scalar Network.dyn_peer[231] 	lookupStabilitySig:mean 	0.33834002353251
scalar Network.dyn_peer[231] 	lookupHopsSig:mean 	15.25
scalar Network.dyn_peer[232] 	lookupTimeSig:mean 	1.92
scalar Network.dyn_peer[232] 	lookupStabilitySig:mean 	0.96230106237344
scalar Network.dyn_peer[232] 	lookupHopsSig:mean 	18.3
scalar Network.dyn_peer[233] 	lookupTimeSig:mean 	1.1285714285714
scalar Network.dyn_peer[233] 	lookupStabilitySig:mean 	0.57637711028968
scalar Network.dyn_peer[233] 	lookupHopsSig:mean 	10.428571428571
scalar Network.dyn_peer[234] 	lookupTimeSig:mean 	1.3666666666667
scalar Network.dyn_peer[234] 	lookupStabilitySig:mean 	-0.17521090308825
scalar Network.dyn_peer[234] 	lookupHopsSig:mean 	13
scalar Network.dyn_peer[235] 	lookupTimeSig:mean 	2.1333333333333
scalar Network.dyn_peer[235] 	lookupStabilitySig:mean 	0.36263709515333
scalar Network.dyn_peer[235] 	lookupHopsSig:mean 	20.666666666667
scalar Network.dyn_peer[236] 	lookupTimeSig:mean 	2.75
scalar Network.dyn_peer[236] 	lookupStabilitySig:mean 	0.77716671815142
scalar Network.dyn_peer[236] 	lookupHopsSig:mean 	26.75
scalar Network.dyn_peer[237] 	lookupTimeSig:mean 	1.375
scalar Network.dyn_peer[237] 	lookupStabilitySig:mean 	0.20295567624271
scalar Network.dyn_peer[237] 	lookupHopsSig:mean 	13
scalar Network.dyn_peer[238] 	lookupTimeSig:mean 	1.775
scalar Network.dyn_peer[238] 	lookupStabilitySig:mean 	0.36946319043636
scalar Network.dyn_peer[238] 	lookupHopsSig:mean 	17
scalar Network.dyn_peer[239] 	lookupTimeSig:mean 	1.6
scalar Network.dyn_peer[239] 	lookupStabilitySig:mean 	0.5436897990959
scalar Network.dyn_peer[239] 	lookupHopsSig:mean 	15.142857142857
scalar Network.dyn_peer[240] 	lookupTimeSig:mean 	1.6125
scalar Network.dyn_peer[240] 	lookupStabilitySig:mean 	0.89159226190532
scalar Network.dyn_peer[240] 	lookupHopsSig:mean 	15.25
scalar Network.dyn_peer[241] 	lookupTimeSig:mean 	1.3
scalar Network.dyn_peer[241] 	lookupStabilitySig:mean 	-0.046650568644206
scalar Network.dyn_peer[241] 	lookupHopsSig:mean 	12.333333333333
scalar Network.dyn_peer[242] 	lookupTimeSig:mean 	2.15
scalar Network.dyn_peer[242] 	lookupStabilitySig:mean 	0.34378651971929
scalar Network.dyn_peer[242] 	lookupHopsSig:mean 	20.75
scalar Network.dyn_peer[243] 	lookupTimeSig:mean 	0.775
scalar Network.dyn_peer[243] 	lookupStabilitySig:mean 	0.15625001117587
scalar Network.dyn_peer[243] 	lookupHopsSig:mean 	7
scalar Network.dyn_peer[244] 	lookupTimeSig:mean 	1.76
scalar Network.dyn_peer[244] 	lookupStabilitySig:mean 	0.39696857370436
scalar Network.dyn_peer[244] 	lookupHopsSig:mean 	16.8
scalar Network.dyn_peer[245] 	lookupTimeSig:mean 	2.725
scalar Network.dyn_peer[245] 	lookupStabilitySig:mean 	0.90293682692572
scalar Network.dyn_peer[245] 	lookupHopsSig:mean 	26.5
scalar Network.dyn_peer[246] 	lookupTimeSig:mean 	1.8875
scalar Network.dyn_peer[246] 	lookupStabilitySig:mean 	0.79456462949747
scalar Network.dyn_peer[246] 	lookupHopsSig:mean 	18
scalar Network.dyn_peer[247] 	lookupTimeSig:mean 	1.6833333333333
scalar Network.dyn_peer[247] 	lookupStabilitySig:mean 	0.75062646064907
scalar Network.dyn_peer[247] 	lookupHopsSig:mean 	16
scalar Network.dyn_peer[248] 	lookupTimeSig:mean 	1.9058823529412
scalar Network.dyn_peer[248] 	lookupStabilitySig:mean 	0.96448988927638
scalar Network.dyn_peer[248] 	lookupHopsSig:mean 	18.117647058824
scalar Network.dyn_peer[249] 	lookupTimeSig:mean 	5.7
scalar Network.dyn_peer[249] 	lookupStabilitySig:mean 	0.60909089446068
scalar Network.dyn_peer[249] 	lookupHopsSig:mean 	56.5
scalar Network.dyn_peer[250] 	lookupTimeSig:mean 	1.66
scalar Network.dyn_peer[250] 	lookupStabilitySig:mean 	0.42080109119415
scalar Network.dyn_peer[250] 	lookupHopsSig:mean 	15.8
scalar Network.dyn_peer[251] 	lookupTimeSig:mean 	2.28
scalar Network.dyn_peer[251] 	lookupStabilitySig:mean 	0.94409686727449
scalar Network.dyn_peer[251] 	lookupHopsSig:mean 	21.9
scalar Network.dyn_peer[252] 	lookupTimeSig:mean 	2.025
scalar Network.dyn_peer[252] 	lookupStabilitySig:mean 	0.39494049455971
scalar Network.dyn_peer[252] 	lookupHopsSig:mean 	19.5
scalar Network.dyn_peer[253] 	lookupTimeSig:mean 	3.175
scalar Network.dyn_peer[253] 	lookupStabilitySig:mean 	0.82521446654573
scalar Network.dyn_peer[253] 	lookupHopsSig:mean 	31
scalar Network.dyn_peer[254] 	lookupTimeSig:mean 	1.6
scalar Network.dyn_peer[254] 	lookupStabilitySig:mean 	0.86949034987224
scalar Network.dyn_peer[254] 	lookupHopsSig:mean 	15.111111111111
scalar Network.dyn_peer[255] 	lookupTimeSig:mean 	1.45
scalar Network.dyn_peer[255] 	lookupStabilitySig:mean 	0.1979687102139
scalar Network.dyn_peer[255] 	lookupHopsSig:mean 	13.75
scalar Network.dyn_peer[256] 	lookupTimeSig:mean 	0.975
scalar Network.dyn_peer[256] 	lookupStabilitySig:mean 	0.19880954176188
scalar Network.dyn_peer[256] 	lookupHopsSig:mean 	9
scalar Network.dyn_peer[257] 	lookupTimeSig:mean 	2.4818181818182
scalar Network.dyn_peer[257] 	lookupStabilitySig:mean 	0.95903170769188
scalar Network.dyn_peer[257] 	lookupHopsSig:mean 	23.909090909091
scalar Network.dyn_peer[258] 	lookupTimeSig:mean 	1.6833333333333
scalar Network.dyn_peer[258] 	lookupStabilitySig:mean 	0.9237399334088
scalar Network.dyn_peer[258] 	lookupHopsSig:mean 	16
scalar Network.dyn_peer[259] 	lookupTimeSig:mean 	2.175
scalar Network.dyn_peer[259] 	lookupStabilitySig:mean 	0.32452671788633
scalar Network.dyn_peer[259] 	lookupHopsSig:mean 	21
scalar Network.dyn_peer[260] 	lookupTimeSig:mean 	2.45
scalar Network.dyn_peer[260] 	lookupStabilitySig:mean 	0.3981724800542
scalar Network.dyn_peer[260] 	lookupHopsSig:mean 	23.75
scalar Network.dyn_peer[261] 	lookupTimeSig:mean 	1.9714285714286
scalar Network.dyn_peer[261] 	lookupStabilitySig:mean 	0.94674942629146
scalar Network.dyn_peer[261] 	lookupHopsSig:mean 	18.857142857143
scalar Network.dyn_peer[262] 	lookupTimeSig:mean 	1.6777777777778
scalar Network.dyn_peer[262] 	lookupStabilitySig:mean 	0.79550964775909
scalar Network.dyn_peer[262] 	lookupHopsSig:mean 	15.888888888889
scalar Network.dyn_peer[263] 	lookupTimeSig:mean 	1.5714285714286
scalar Network.dyn_peer[263] 	lookupStabilitySig:mean 	0.9160527771871
scalar Network.dyn_peer[263] 	lookupHopsSig:mean 	14.857142857143
scalar Network.dyn_peer[264] 	lookupTimeSig:mean 	2.55
scalar Network.dyn_peer[264] 	lookupStabilitySig:mean 	0.95600724086398
scalar Network.dyn_peer[264] 	lookupHopsSig:mean 	24.625
scalar Network.dyn_peer[265] 	lookupTimeSig:mean 	2.98
scalar Network.dyn_peer[265] 	lookupStabilitySig:mean 	0.93547748699784
scalar Network.dyn_peer[265] 	lookupHopsSig:mean 	29
scalar Network.dyn_peer[266] 	lookupTimeSig:mean 	1.57
scalar Network.dyn_peer[266] 	lookupStabilitySig:mean 	0.90330024147406
scalar Network.dyn_peer[266] 	lookupHopsSig:mean 	14.8
scalar Network.dyn_peer[267] 	lookupTimeSig:mean 	3.4
scalar Network.dyn_peer[267] 	lookupStabilitySig:mean 	0.65858743339777
scalar Network.dyn_peer[267] 	lookupHopsSig:mean 	33.333333333333
scalar Network.dyn_peer[268] 	lookupTimeSig:mean 	2.0444444444444
scalar Network.dyn_peer[268] 	lookupStabilitySig:mean 	0.90985766901738
scalar Network.dyn_peer[268] 	lookupHopsSig:mean 	19.555555555556
scalar Network.dyn_peer[269] 	lookupTimeSig:mean 	2.85
scalar Network.dyn_peer[269] 	lookupStabilitySig:mean 	0.83599818591028
scalar Network.dyn_peer[269] 	lookupHopsSig:mean 	27.75
scalar Network.dyn_peer[270] 	lookupTimeSig:mean 	1.75
scalar Network.dyn_peer[270] 	lookupStabilitySig:mean 	0.94966593123972
scalar Network.dyn_peer[270] 	lookupHopsSig:mean 	16.6
scalar Network.dyn_peer[271] 	lookupTimeSig:mean 	2.6333333333333
scalar Network.dyn_peer[271] 	lookupStabilitySig:mean 	0.88960259516413
scalar Network.dyn_peer[271] 	lookupHopsSig:mean 	25.5
scalar Network.dyn_peer[272] 	lookupTimeSig:mean 	1.725
scalar Network.dyn_peer[272] 	lookupStabilitySig:mean 	0.93127259344328
scalar Network.dyn_peer[272] 	lookupHopsSig:mean 	16.375
scalar Network.dyn_peer[273] 	lookupTimeSig:mean 	4.2
scalar Network.dyn_peer[273] 	lookupStabilitySig:mean 	0.29755901359022
scalar Network.dyn_peer[273] 	lookupHopsSig:mean 	41.25
scalar Network.dyn_peer[274] 	lookupTimeSig:mean 	1.925
scalar Network.dyn_peer[274] 	lookupStabilitySig:mean 	0.61157571896911
scalar Network.dyn_peer[274] 	lookupHopsSig:mean 	18.5
scalar Network.dyn_peer[275] 	lookupTimeSig:mean 	1.45
scalar Network.dyn_peer[275] 	lookupStabilitySig:mean 	0.3508819732815
scalar Network.dyn_peer[275] 	lookupHopsSig:mean 	13.75
scalar Network.dyn_peer[276] 	lookupTimeSig:mean 	4.7
scalar Network.dyn_peer[276] 	lookupStabilitySig:mean 	0.47371404618025
scalar Network.dyn_peer[276] 	lookupHopsSig:mean 	46.5
scalar Network.dyn_peer[277] 	lookupTimeSig:mean 	1.925
scalar Network.dyn_peer[277] 	lookupStabilitySig:mean 	0.95998397422954
scalar Network.dyn_peer[277] 	lookupHopsSig:mean 	18.375
scalar Network.dyn_peer[278] 	lookupTimeSig:mean 	1.8166666666667
scalar Network.dyn_peer[278] 	lookupStabilitySig:mean 	0.74652438471094
scalar Network.dyn_peer[278] 	lookupHopsSig:mean 	17.333333333333
scalar Network.dyn_peer[279] 	lookupTimeSig:mean 	2.25
scalar Network.dyn_peer[279] 	lookupStabilitySig:mean 	0.61282640136778
scalar Network.dyn_peer[279] 	lookupHopsSig:mean 	21.75
scalar Network.dyn_peer[280] 	lookupTimeSig:mean 	2
scalar Network.dyn_peer[280] 	lookupStabilitySig:mean 	0.82559619910483
scalar Network.dyn_peer[280] 	lookupHopsSig:mean 	19.142857142857
scalar Network.dyn_peer[281] 	lookupTimeSig:mean 	1.6875
scalar Network.dyn_peer[281] 	lookupStabilitySig:mean 	0.56704230303876
scalar Network.dyn_peer[281] 	lookupHopsSig:mean 	16
scalar Network.dyn_peer[282] 	lookupTimeSig:mean 	2.0166666666667
scalar Network.dyn_peer[282] 	lookupStabilitySig:mean 	0.95490331497664
scalar Network.dyn_peer[282] 	lookupHopsSig:mean 	19.25
scalar Network.dyn_peer[283] 	lookupTimeSig:mean 	2.3
scalar Network.dyn_peer[283] 	lookupStabilitySig:mean 	-0.0075351968407631
scalar Network.dyn_peer[283] 	lookupHopsSig:mean 	22.333333333333
scalar Network.dyn_peer[284] 	lookupTimeSig:mean 	2.375
scalar Network.dyn_peer[284] 	lookupStabilitySig:mean 	0.95817565335892
scalar Network.dyn_peer[284] 	lookupHopsSig:mean 	22.875
scalar Network.dyn_peer[285] 	lookupTimeSig:mean 	3.6
scalar Network.dyn_peer[285] 	lookupStabilitySig:mean 	-0.23955221474171
scalar Network.dyn_peer[285] 	lookupHopsSig:mean 	35.5
scalar Network.dyn_peer[286] 	lookupTimeSig:mean 	2.7166666666667
scalar Network.dyn_peer[286] 	lookupStabilitySig:mean 	0.92817667530229
scalar Network.dyn_peer[286] 	lookupHopsSig:mean 	26.333333333333
scalar Network.dyn_peer[287] 	lookupTimeSig:mean 	1.5666666666667
scalar Network.dyn_peer[287] 	lookupStabilitySig:mean 	0.47318120921652
scalar Network.dyn_peer[287] 	lookupHopsSig:mean 	14.833333333333
scalar Network.dyn_peer[288] 	lookupTimeSig:mean 	2.7428571428571
scalar Network.dyn_peer[288] 	lookupStabilitySig:mean 	0.95043663288067
scalar Network.dyn_peer[288] 	lookupHopsSig:mean 	26.571428571429
scalar Network.dyn_peer[289] 	lookupTimeSig:mean 	1.875
scalar Network.dyn_peer[289] 	lookupStabilitySig:mean 	0.24918130226433
scalar Network.dyn_peer[289] 	lookupHopsSig:mean 	18
scalar Network.dyn_peer[290] 	lookupTimeSig:mean 	1.9
scalar Network.dyn_peer[290] 	lookupStabilitySig:mean 	0.34184268582612
scalar Network.dyn_peer[290] 	lookupHopsSig:mean 	18.25
scalar Network.dyn_peer[291] 	lookupTimeSig:mean 	2.525
scalar Network.dyn_peer[291] 	lookupStabilitySig:mean 	0.28997857682407
scalar Network.dyn_peer[291] 	lookupHopsSig:mean 	24.5
scalar Network.dyn_peer[292] 	lookupTimeSig:mean 	2.0428571428571
scalar Network.dyn_peer[292] 	lookupStabilitySig:mean 	0.61742387259645
scalar Network.dyn_peer[292] 	lookupHopsSig:mean 	19.571428571429
scalar Network.dyn_peer[293] 	lookupTimeSig:mean 	1.1
scalar Network.dyn_peer[293] 	lookupStabilitySig:mean 	0.13855044171214
scalar Network.dyn_peer[293] 	lookupHopsSig:mean 	10.25
scalar Network.dyn_peer[294] 	lookupTimeSig:mean 	1.31
scalar Network.dyn_peer[294] 	lookupStabilitySig:mean 	0.85231826025993
scalar Network.dyn_peer[294] 	lookupHopsSig:mean 	12.2
scalar Network.dyn_peer[295] 	lookupTimeSig:mean 	2.08
scalar Network.dyn_peer[295] 	lookupStabilitySig:mean 	0.4470280546695
scalar Network.dyn_peer[295] 	lookupHopsSig:mean 	20
scalar Network.dyn_peer[296] 	lookupTimeSig:mean 	1.1142857142857
scalar Network.dyn_peer[296] 	lookupStabilitySig:mean 	0.60104090347886
scalar Network.dyn_peer[296] 	lookupHopsSig:mean 	10.285714285714
scalar Network.dyn_peer[297] 	lookupTimeSig:mean 	1.0625
scalar Network.dyn_peer[297] 	lookupStabilitySig:mean 	0.76681355769688
scalar Network.dyn_peer[297] 	lookupHopsSig:mean 	9.6875
scalar Network.dyn_peer[298] 	lookupTimeSig:mean 	1.86
scalar Network.dyn_peer[298] 	lookupStabilitySig:mean 	0.47506649643183
scalar Network.dyn_peer[298] 	lookupHopsSig:mean 	17.8
scalar Network.dyn_peer[299] 	lookupTimeSig:mean 	2.5545454545455
scalar Network.dyn_peer[299] 	lookupStabilitySig:mean 	0.96338117584078
scalar Network.dyn_peer[299] 	lookupHopsSig:mean 	24.636363636364
scalar Network.dyn_peer[300] 	lookupTimeSig:mean 	1.3857142857143
scalar Network.dyn_peer[300] 	lookupStabilitySig:mean 	0.7329404300877
scalar Network.dyn_peer[300] 	lookupHopsSig:mean 	13
scalar Network.dyn_peer[301] 	lookupTimeSig:mean 	1.225
scalar Network.dyn_peer[301] 	lookupStabilitySig:mean 	0.56041182205081
scalar Network.dyn_peer[301] 	lookupHopsSig:mean 	11.375
scalar Network.dyn_peer[302] 	lookupTimeSig:mean 	3.05
scalar Network.dyn_peer[302] 	lookupStabilitySig:mean 	0.32588915526867
scalar Network.dyn_peer[302] 	lookupHopsSig:mean 	30
scalar Network.dyn_peer[303] 	lookupTimeSig:mean 	2.3
scalar Network.dyn_peer[303] 	lookupStabilitySig:mean 	0.91665758571721
scalar Network.dyn_peer[303] 	lookupHopsSig:mean 	22.142857142857
scalar Network.dyn_peer[304] 	lookupTimeSig:mean 	3
scalar Network.dyn_peer[304] 	lookupStabilitySig:mean 	0.91067502251826
scalar Network.dyn_peer[304] 	lookupHopsSig:mean 	29.25
scalar Network.dyn_peer[305] 	lookupTimeSig:mean 	0.9
scalar Network.dyn_peer[305] 	lookupStabilitySig:mean 	0.12175225093961
scalar Network.dyn_peer[305] 	lookupHopsSig:mean 	8.25
scalar Network.dyn_peer[306] 	lookupTimeSig:mean 	2.0333333333333
scalar Network.dyn_peer[306] 	lookupStabilitySig:mean 	0.79593205265701
scalar Network.dyn_peer[306] 	lookupHopsSig:mean 	19.5
scalar Network.dyn_peer[307] 	lookupTimeSig:mean 	2.2444444444444
scalar Network.dyn_peer[307] 	lookupStabilitySig:mean 	0.96182428321077
scalar Network.dyn_peer[307] 	lookupHopsSig:mean 	21.555555555556
scalar Network.dyn_peer[308] 	lookupTimeSig:mean 	2.7
scalar Network.dyn_peer[308] 	lookupStabilitySig:mean 	0.54561810288578
scalar Network.dyn_peer[308] 	lookupHopsSig:mean 	26.25
scalar Network.dyn_peer[309] 	lookupTimeSig:mean 	2
scalar Network.dyn_peer[309] 	lookupStabilitySig:mean 	0.60769229382277
scalar Network.dyn_peer[309] 	lookupHopsSig:mean 	19.5
scalar Network.dyn_peer[310] 	lookupTimeSig:mean 	1.2
scalar Network.dyn_peer[310] 	lookupStabilitySig:mean 	-0.01118016242981
scalar Network.dyn_peer[310] 	lookupHopsSig:mean 	11.333333333333
scalar Network.dyn_peer[311] 	lookupTimeSig:mean 	1.9875
scalar Network.dyn_peer[311] 	lookupStabilitySig:mean 	0.94951988261892
scalar Network.dyn_peer[311] 	lookupHopsSig:mean 	19
scalar Network.dyn_peer[312] 	lookupTimeSig:mean 	1.475
scalar Network.dyn_peer[312] 	lookupStabilitySig:mean 	0.93782483050018
scalar Network.dyn_peer[312] 	lookupHopsSig:mean 	13.875
scalar Network.dyn_peer[313] 	lookupTimeSig:mean 	2.78
scalar Network.dyn_peer[313] 	lookupStabilitySig:mean 	0.7065066114068
scalar Network.dyn_peer[313] 	lookupHopsSig:mean 	27
scalar Network.dyn_peer[314] 	lookupTimeSig:mean 	1.33
scalar Network.dyn_peer[314] 	lookupStabilitySig:mean 	0.93377046068199
scalar Network.dyn_peer[314] 	lookupHopsSig:mean 	12.4
scalar Network.dyn_peer[315] 	lookupTimeSig:mean 	1.2666666666667
scalar Network.dyn_peer[315] 	lookupStabilitySig:mean 	0.46144579164684
scalar Network.dyn_peer[315] 	lookupHopsSig:mean 	11.833333333333
scalar Network.dyn_peer[316] 	lookupTimeSig:mean 	2.9666666666667
scalar Network.dyn_peer[316] 	lookupStabilitySig:mean 	0.62068958083789
scalar Network.dyn_peer[316] 	lookupHopsSig:mean 	29
scalar Network.dyn_peer[317] 	lookupTimeSig:mean 	2.2333333333333
scalar Network.dyn_peer[317] 	lookupStabilitySig:mean 	0.64946002264818
scalar Network.dyn_peer[317] 	lookupHopsSig:mean 	21.666666666667
scalar Network.dyn_peer[318] 	lookupTimeSig:mean 	2.1
scalar Network.dyn_peer[318] 	lookupStabilitySig:mean 	0.188590827398
scalar Network.dyn_peer[318] 	lookupHopsSig:mean 	20.25
scalar Network.dyn_peer[319] 	lookupTimeSig:mean 	2.5
scalar Network.dyn_peer[319] 	lookupStabilitySig:mean 	0.3868323545903
scalar Network.dyn_peer[319] 	lookupHopsSig:mean 	24.2
scalar Network.dyn_peer[320] 	lookupTimeSig:mean 	1.75
scalar Network.dyn_peer[320] 	lookupStabilitySig:mean 	0.56254431977868
scalar Network.dyn_peer[320] 	lookupHopsSig:mean 	16.75
scalar Network.dyn_peer[321] 	lookupTimeSig:mean 	1.8375
scalar Network.dyn_peer[321] 	lookupStabilitySig:mean 	0.80091441731201
scalar Network.dyn_peer[321] 	lookupHopsSig:mean 	17.5
scalar Network.dyn_peer[322] 	lookupTimeSig:mean 	2.175
scalar Network.dyn_peer[322] 	lookupStabilitySig:mean 	0.63023360446095
scalar Network.dyn_peer[322] 	lookupHopsSig:mean 	21
scalar Network.dyn_peer[323] 	lookupTimeSig:mean 	1.1142857142857
scalar Network.dyn_peer[323] 	lookupStabilitySig:mean 	0.69909316993185
scalar Network.dyn_peer[323] 	lookupHopsSig:mean 	10.285714285714
scalar Network.dyn_peer[324] 	lookupTimeSig:mean 	2
scalar Network.dyn_peer[324] 	lookupStabilitySig:mean 	0.92670497684074
scalar Network.dyn_peer[324] 	lookupHopsSig:mean 	19.142857142857
scalar Network.dyn_peer[325] 	lookupTimeSig:mean 	1.56
scalar Network.dyn_peer[325] 	lookupStabilitySig:mean 	0.4708891639486
scalar Network.dyn_peer[325] 	lookupHopsSig:mean 	14.8
scalar Network.dyn_peer[326] 	lookupTimeSig:mean 	2.8
scalar Network.dyn_peer[326] 	lookupStabilitySig:mean 	0.80058184918016
scalar Network.dyn_peer[326] 	lookupHopsSig:mean 	27.25
scalar Network.dyn_peer[327] 	lookupTimeSig:mean 	2.5666666666667
scalar Network.dyn_peer[327] 	lookupStabilitySig:mean 	0.28759667774041
scalar Network.dyn_peer[327] 	lookupHopsSig:mean 	25
scalar Network.dyn_peer[328] 	lookupTimeSig:mean 	2.0666666666667
scalar Network.dyn_peer[328] 	lookupStabilitySig:mean 	0.86879827175289
scalar Network.dyn_peer[328] 	lookupHopsSig:mean 	19.833333333333
scalar Network.dyn_peer[329] 	lookupTimeSig:mean 	1.9
scalar Network.dyn_peer[329] 	lookupStabilitySig:mean 	0.94873507288867
scalar Network.dyn_peer[329] 	lookupHopsSig:mean 	18.125
scalar Network.dyn_peer[330] 	lookupTimeSig:mean 	1.9
scalar Network.dyn_peer[330] 	lookupStabilitySig:mean 	0.56331197544932
scalar Network.dyn_peer[330] 	lookupHopsSig:mean 	18.25
scalar Network.dyn_peer[331] 	lookupTimeSig:mean 	1.4
scalar Network.dyn_peer[331] 	lookupStabilitySig:mean 	0.44504345208406
scalar Network.dyn_peer[331] 	lookupHopsSig:mean 	13.2
scalar Network.dyn_peer[332] 	lookupTimeSig:mean 	1.9333333333333
scalar Network.dyn_peer[332] 	lookupStabilitySig:mean 	0.16380371153355
scalar Network.dyn_peer[332] 	lookupHopsSig:mean 	18.666666666667
scalar Network.dyn_peer[333] 	lookupTimeSig:mean 	2.15
scalar Network.dyn_peer[333] 	lookupStabilitySig:mean 	0.46219511330128
scalar Network.dyn_peer[333] 	lookupHopsSig:mean 	21
scalar Network.dyn_peer[334] 	lookupTimeSig:mean 	2.88
scalar Network.dyn_peer[334] 	lookupStabilitySig:mean 	0.64877028204501
scalar Network.dyn_peer[334] 	lookupHopsSig:mean 	28
scalar Network.dyn_peer[335] 	lookupTimeSig:mean 	1.72
scalar Network.dyn_peer[335] 	lookupStabilitySig:mean 	0.53088007122278
scalar Network.dyn_peer[335] 	lookupHopsSig:mean 	16.4
scalar Network.dyn_peer[336] 	lookupTimeSig:mean 	1.0857142857143
scalar Network.dyn_peer[336] 	lookupStabilitySig:mean 	0.52645245886275
scalar Network.dyn_peer[336] 	lookupHopsSig:mean 	10
scalar Network.dyn_peer[337] 	lookupTimeSig:mean 	0.83333333333333
scalar Network.dyn_peer[337] 	lookupStabilitySig:mean 	0.42585919052362
scalar Network.dyn_peer[337] 	lookupHopsSig:mean 	7.5
scalar Network.dyn_peer[338] 	lookupTimeSig:mean 	2.475
scalar Network.dyn_peer[338] 	lookupStabilitySig:mean 	0.84169249236584
scalar Network.dyn_peer[338] 	lookupHopsSig:mean 	24
scalar Network.dyn_peer[339] 	lookupTimeSig:mean 	1.625
scalar Network.dyn_peer[339] 	lookupStabilitySig:mean 	0.45405027829111
scalar Network.dyn_peer[339] 	lookupHopsSig:mean 	15.5
scalar Network.dyn_peer[340] 	lookupTimeSig:mean 	1.75625
scalar Network.dyn_peer[340] 	lookupStabilitySig:mean 	0.91517476551235
scalar Network.dyn_peer[340] 	lookupHopsSig:mean 	16.625
scalar Network.dyn_peer[341] 	lookupTimeSig:mean 	1.1666666666667
scalar Network.dyn_peer[341] 	lookupStabilitySig:mean 	0.70401277377581
scalar Network.dyn_peer[341] 	lookupHopsSig:mean 	10.833333333333
scalar Network.dyn_peer[342] 	lookupTimeSig:mean 	1.8
scalar Network.dyn_peer[342] 	lookupStabilitySig:mean 	-0.015306115150452
scalar Network.dyn_peer[342] 	lookupHopsSig:mean 	17.5
scalar Network.dyn_peer[343] 	lookupTimeSig:mean 	2.8833333333333
scalar Network.dyn_peer[343] 	lookupStabilitySig:mean 	0.88408950615364
scalar Network.dyn_peer[343] 	lookupHopsSig:mean 	28
scalar Network.dyn_peer[344] 	lookupTimeSig:mean 	1.65
scalar Network.dyn_peer[344] 	lookupStabilitySig:mean 	0.35132998693734
scalar Network.dyn_peer[344] 	lookupHopsSig:mean 	15.75
scalar Network.dyn_peer[345] 	lookupTimeSig:mean 	2
scalar Network.dyn_peer[345] 	lookupStabilitySig:mean 	0.89483766555786
scalar Network.dyn_peer[345] 	lookupHopsSig:mean 	19.2
scalar Network.dyn_peer[346] 	lookupTimeSig:mean 	1.03
scalar Network.dyn_peer[346] 	lookupStabilitySig:mean 	0.68047208655626
scalar Network.dyn_peer[346] 	lookupHopsSig:mean 	9.4
scalar Network.dyn_peer[347] 	lookupTimeSig:mean 	1.4
scalar Network.dyn_peer[347] 	lookupStabilitySig:mean 	0.7819694418693
scalar Network.dyn_peer[347] 	lookupHopsSig:mean 	13.1
scalar Network.dyn_peer[348] 	lookupTimeSig:mean 	1.9142857142857
scalar Network.dyn_peer[348] 	lookupStabilitySig:mean 	0.78867337560015
scalar Network.dyn_peer[348] 	lookupHopsSig:mean 	18.285714285714
scalar Network.dyn_peer[349] 	lookupTimeSig:mean 	0.875
scalar Network.dyn_peer[349] 	lookupStabilitySig:mean 	0.29821430752054
scalar Network.dyn_peer[349] 	lookupHopsSig:mean 	8
scalar Network.dyn_peer[350] 	lookupTimeSig:mean 	1.6583333333333
scalar Network.dyn_peer[350] 	lookupStabilitySig:mean 	0.77291593770497
scalar Network.dyn_peer[350] 	lookupHopsSig:mean 	15.666666666667
scalar Network.dyn_peer[351] 	lookupTimeSig:mean 	1.6785714285714
scalar Network.dyn_peer[351] 	lookupStabilitySig:mean 	0.96392901747354
scalar Network.dyn_peer[351] 	lookupHopsSig:mean 	15.857142857143
scalar Network.dyn_peer[352] 	lookupTimeSig:mean 	2.7
scalar Network.dyn_peer[352] 	lookupStabilitySig:mean 	-0.48214280605316
scalar Network.dyn_peer[352] 	lookupHopsSig:mean 	26.5
scalar Network.dyn_peer[353] 	lookupTimeSig:mean 	3.14
scalar Network.dyn_peer[353] 	lookupStabilitySig:mean 	0.89564429204911
scalar Network.dyn_peer[353] 	lookupHopsSig:mean 	30.6
scalar Network.dyn_peer[354] 	lookupTimeSig:mean 	1.6666666666667
scalar Network.dyn_peer[354] 	lookupStabilitySig:mean 	0.24382286270459
scalar Network.dyn_peer[354] 	lookupHopsSig:mean 	16
scalar Network.dyn_peer[355] 	lookupTimeSig:mean 	2.9
scalar Network.dyn_peer[355] 	lookupStabilitySig:mean 	0.47084357589483
scalar Network.dyn_peer[355] 	lookupHopsSig:mean 	28.5
scalar Network.dyn_peer[356] 	lookupTimeSig:mean 	1.9166666666667
scalar Network.dyn_peer[356] 	lookupStabilitySig:mean 	0.67440192960203
scalar Network.dyn_peer[356] 	lookupHopsSig:mean 	18.333333333333
scalar Network.dyn_peer[357] 	lookupTimeSig:mean 	1.74
scalar Network.dyn_peer[357] 	lookupStabilitySig:mean 	0.77500393404625
scalar Network.dyn_peer[357] 	lookupHopsSig:mean 	16.5
scalar Network.dyn_peer[358] 	lookupTimeSig:mean 	1.2833333333333
scalar Network.dyn_peer[358] 	lookupStabilitySig:mean 	0.58578272691617
scalar Network.dyn_peer[358] 	lookupHopsSig:mean 	12
scalar Network.dyn_peer[359] 	lookupTimeSig:mean 	2.2333333333333
scalar Network.dyn_peer[359] 	lookupStabilitySig:mean 	0.33471886813641
scalar Network.dyn_peer[359] 	lookupHopsSig:mean 	21.666666666667
scalar Network.dyn_peer[360] 	lookupTimeSig:mean 	2.1142857142857
scalar Network.dyn_peer[360] 	lookupStabilitySig:mean 	0.90637029374817
scalar Network.dyn_peer[360] 	lookupHopsSig:mean 	20.285714285714
scalar Network.dyn_peer[361] 	lookupTimeSig:mean 	2.025
scalar Network.dyn_peer[361] 	lookupStabilitySig:mean 	0.44267709273845
scalar Network.dyn_peer[361] 	lookupHopsSig:mean 	19.5
scalar Network.dyn_peer[362] 	lookupTimeSig:mean 	2.5666666666667
scalar Network.dyn_peer[362] 	lookupStabilitySig:mean 	0.49802880982558
scalar Network.dyn_peer[362] 	lookupHopsSig:mean 	25
scalar Network.dyn_peer[363] 	lookupTimeSig:mean 	1.2166666666667
scalar Network.dyn_peer[363] 	lookupStabilitySig:mean 	0.7286662501283
scalar Network.dyn_peer[363] 	lookupHopsSig:mean 	11.333333333333
scalar Network.dyn_peer[364] 	lookupTimeSig:mean 	1.9
scalar Network.dyn_peer[364] 	lookupStabilitySig:mean 	0.38487135525793
scalar Network.dyn_peer[364] 	lookupHopsSig:mean 	18.25
scalar Network.dyn_peer[365] 	lookupTimeSig:mean 	4.75
scalar Network.dyn_peer[365] 	lookupStabilitySig:mean 	0.74921966716647
scalar Network.dyn_peer[365] 	lookupHopsSig:mean 	47
scalar Network.dyn_peer[366] 	lookupTimeSig:mean 	1.5818181818182
scalar Network.dyn_peer[366] 	lookupStabilitySig:mean 	0.73567385503768
scalar Network.dyn_peer[366] 	lookupHopsSig:mean 	14.909090909091
scalar Network.dyn_peer[367] 	lookupTimeSig:mean 	2.08
scalar Network.dyn_peer[367] 	lookupStabilitySig:mean 	0.55982602909207
scalar Network.dyn_peer[367] 	lookupHopsSig:mean 	20
scalar Network.dyn_peer[368] 	lookupTimeSig:mean 	1.5833333333333
scalar Network.dyn_peer[368] 	lookupStabilitySig:mean 	0.45193936303258
scalar Network.dyn_peer[368] 	lookupHopsSig:mean 	15
scalar Network.dyn_peer[369] 	lookupTimeSig:mean 	2.7
scalar Network.dyn_peer[369] 	lookupStabilitySig:mean 	0.80155326798558
scalar Network.dyn_peer[369] 	lookupHopsSig:mean 	26.25
scalar Network.dyn_peer[370] 	lookupTimeSig:mean 	2.0875
scalar Network.dyn_peer[370] 	lookupStabilitySig:mean 	0.97363440453773
scalar Network.dyn_peer[370] 	lookupHopsSig:mean 	19.9375
scalar Network.dyn_peer[371] 	lookupTimeSig:mean 	1.55
scalar Network.dyn_peer[371] 	lookupStabilitySig:mean 	0.38851729035378
scalar Network.dyn_peer[371] 	lookupHopsSig:mean 	14.75
scalar Network.dyn_peer[372] 	lookupTimeSig:mean 	1.75
scalar Network.dyn_peer[372] 	lookupStabilitySig:mean 	0.43063350021839
scalar Network.dyn_peer[372] 	lookupHopsSig:mean 	17
scalar Network.dyn_peer[373] 	lookupTimeSig:mean 	2.5111111111111
scalar Network.dyn_peer[373] 	lookupStabilitySig:mean 	0.95521897750182
scalar Network.dyn_peer[373] 	lookupHopsSig:mean 	24.222222222222
scalar Network.dyn_peer[374] 	lookupTimeSig:mean 	1.9666666666667
scalar Network.dyn_peer[374] 	lookupStabilitySig:mean 	0.95052493679234
scalar Network.dyn_peer[374] 	lookupHopsSig:mean 	18.777777777778
scalar Network.dyn_peer[375] 	lookupTimeSig:mean 	4.05
scalar Network.dyn_peer[375] 	lookupStabilitySig:mean 	0.77826965600252
scalar Network.dyn_peer[375] 	lookupHopsSig:mean 	40
scalar Network.dyn_peer[376] 	lookupTimeSig:mean 	3.34
scalar Network.dyn_peer[376] 	lookupStabilitySig:mean 	0.9069481998682
scalar Network.dyn_peer[376] 	lookupHopsSig:mean 	32.6
scalar Network.dyn_peer[377] 	lookupTimeSig:mean 	2.4333333333333
scalar Network.dyn_peer[377] 	lookupStabilitySig:mean 	0.92186906002462
scalar Network.dyn_peer[377] 	lookupHopsSig:mean 	23.5
scalar Network.dyn_peer[378] 	lookupTimeSig:mean 	1.65
scalar Network.dyn_peer[378] 	lookupStabilitySig:mean 	0.69284027659645
scalar Network.dyn_peer[378] 	lookupHopsSig:mean 	15.666666666667
scalar Network.dyn_peer[379] 	lookupTimeSig:mean 	1.4833333333333
scalar Network.dyn_peer[379] 	lookupStabilitySig:mean 	0.71775826113299
scalar Network.dyn_peer[379] 	lookupHopsSig:mean 	14
scalar Network.dyn_peer[380] 	lookupTimeSig:mean 	1.78
scalar Network.dyn_peer[380] 	lookupStabilitySig:mean 	0.6088704848662
scalar Network.dyn_peer[380] 	lookupHopsSig:mean 	17
scalar Network.dyn_peer[381] 	lookupTimeSig:mean 	3.1666666666667
scalar Network.dyn_peer[381] 	lookupStabilitySig:mean 	0.87346040954192
scalar Network.dyn_peer[381] 	lookupHopsSig:mean 	31
scalar Network.dyn_peer[382] 	lookupTimeSig:mean 	2.3
scalar Network.dyn_peer[382] 	lookupStabilitySig:mean 	0.93469797327582
scalar Network.dyn_peer[382] 	lookupHopsSig:mean 	22.142857142857
scalar Network.dyn_peer[383] 	lookupTimeSig:mean 	1.16
scalar Network.dyn_peer[383] 	lookupStabilitySig:mean 	0.50860135257244
scalar Network.dyn_peer[383] 	lookupHopsSig:mean 	10.8
scalar Network.dyn_peer[384] 	lookupTimeSig:mean 	2.125
scalar Network.dyn_peer[384] 	lookupStabilitySig:mean 	0.5595924295485
scalar Network.dyn_peer[384] 	lookupHopsSig:mean 	20.5
scalar Network.dyn_peer[385] 	lookupTimeSig:mean 	2.6
scalar Network.dyn_peer[385] 	lookupStabilitySig:mean 	0.59839388355613
scalar Network.dyn_peer[385] 	lookupHopsSig:mean 	25.5
scalar Network.dyn_peer[386] 	lookupTimeSig:mean 	3.6666666666667
scalar Network.dyn_peer[386] 	lookupStabilitySig:mean 	0.73560396333536
scalar Network.dyn_peer[386] 	lookupHopsSig:mean 	36
scalar Network.dyn_peer[387] 	lookupTimeSig:mean 	2.975
scalar Network.dyn_peer[387] 	lookupStabilitySig:mean 	0.89162622625008
scalar Network.dyn_peer[387] 	lookupHopsSig:mean 	29
scalar Network.dyn_peer[388] 	lookupTimeSig:mean 	1.85
scalar Network.dyn_peer[388] 	lookupStabilitySig:mean 	0.76308103196789
scalar Network.dyn_peer[388] 	lookupHopsSig:mean 	17.625
scalar Network.dyn_peer[389] 	lookupTimeSig:mean 	1.6444444444444
scalar Network.dyn_peer[389] 	lookupStabilitySig:mean 	0.78988561567126
scalar Network.dyn_peer[389] 	lookupHopsSig:mean 	15.555555555556
scalar Network.dyn_peer[390] 	lookupTimeSig:mean 	2.3333333333333
scalar Network.dyn_peer[390] 	lookupStabilitySig:mean 	0.15681818127632
scalar Network.dyn_peer[390] 	lookupHopsSig:mean 	22.666666666667
scalar Network.dyn_peer[391] 	lookupTimeSig:mean 	2.8
scalar Network.dyn_peer[391] 	lookupStabilitySig:mean 	-0.10264900326729
scalar Network.dyn_peer[391] 	lookupHopsSig:mean 	27.5
scalar Network.dyn_peer[392] 	lookupTimeSig:mean 	2.05
scalar Network.dyn_peer[392] 	lookupStabilitySig:mean 	0.56032699625939
scalar Network.dyn_peer[392] 	lookupHopsSig:mean 	19.75
scalar Network.dyn_peer[393] 	lookupTimeSig:mean 	2.0333333333333
scalar Network.dyn_peer[393] 	lookupStabilitySig:mean 	0.097171902656555
scalar Network.dyn_peer[393] 	lookupHopsSig:mean 	19.666666666667
scalar Network.dyn_peer[394] 	lookupTimeSig:mean 	1.2777777777778
scalar Network.dyn_peer[394] 	lookupStabilitySig:mean 	0.91363082831312
scalar Network.dyn_peer[394] 	lookupHopsSig:mean 	11.888888888889
scalar Network.dyn_peer[395] 	lookupTimeSig:mean 	1.4
scalar Network.dyn_peer[395] 	lookupStabilitySig:mean 	0.91280610021204
scalar Network.dyn_peer[395] 	lookupHopsSig:mean 	13.090909090909
scalar Network.dyn_peer[396] 	lookupTimeSig:mean 	2.2333333333333
scalar Network.dyn_peer[396] 	lookupStabilitySig:mean 	0.53621795028448
scalar Network.dyn_peer[396] 	lookupHopsSig:mean 	21.666666666667
scalar Network.dyn_peer[397] 	lookupTimeSig:mean 	1.6666666666667
scalar Network.dyn_peer[397] 	lookupStabilitySig:mean 	0.38349077105522
scalar Network.dyn_peer[397] 	lookupHopsSig:mean 	16
scalar Network.dyn_peer[398] 	lookupTimeSig:mean 	1.8833333333333
scalar Network.dyn_peer[398] 	lookupStabilitySig:mean 	0.69658827160796
scalar Network.dyn_peer[398] 	lookupHopsSig:mean 	18
scalar Network.dyn_peer[399] 	lookupTimeSig:mean 	2.1
scalar Network.dyn_peer[399] 	lookupStabilitySig:mean 	0.37082635983825
scalar Network.dyn_peer[399] 	lookupHopsSig:mean 	20.25
scalar Network.dyn_peer[400] 	lookupTimeSig:mean 	2.1166666666667
scalar Network.dyn_peer[400] 	lookupStabilitySig:mean 	0.49622279281418
scalar Network.dyn_peer[400] 	lookupHopsSig:mean 	20.333333333333
scalar Network.dyn_peer[401] 	lookupTimeSig:mean 	1.4
scalar Network.dyn_peer[401] 	lookupStabilitySig:mean 	0.17969375352065
scalar Network.dyn_peer[401] 	lookupHopsSig:mean 	13.333333333333
scalar Network.dyn_peer[402] 	lookupTimeSig:mean 	2.1
scalar Network.dyn_peer[402] 	lookupStabilitySig:mean 	0.64242548216134
scalar Network.dyn_peer[402] 	lookupHopsSig:mean 	20.166666666667
scalar Network.dyn_peer[403] 	lookupTimeSig:mean 	1.3785714285714
scalar Network.dyn_peer[403] 	lookupStabilitySig:mean 	0.86298775786002
scalar Network.dyn_peer[403] 	lookupHopsSig:mean 	12.857142857143
scalar Network.dyn_peer[404] 	lookupTimeSig:mean 	3.08
scalar Network.dyn_peer[404] 	lookupStabilitySig:mean 	0.9183415748179
scalar Network.dyn_peer[404] 	lookupHopsSig:mean 	30
scalar Network.dyn_peer[405] 	lookupTimeSig:mean 	2.85
scalar Network.dyn_peer[405] 	lookupStabilitySig:mean 	0.36364951357245
scalar Network.dyn_peer[405] 	lookupHopsSig:mean 	27.75
scalar Network.dyn_peer[406] 	lookupTimeSig:mean 	3.3
scalar Network.dyn_peer[406] 	lookupStabilitySig:mean 	0.71029693633318
scalar Network.dyn_peer[406] 	lookupHopsSig:mean 	32.5
scalar Network.dyn_peer[407] 	lookupTimeSig:mean 	3.325
scalar Network.dyn_peer[407] 	lookupStabilitySig:mean 	0.37134041450918
scalar Network.dyn_peer[407] 	lookupHopsSig:mean 	32.5
scalar Network.dyn_peer[408] 	lookupTimeSig:mean 	2.625
scalar Network.dyn_peer[408] 	lookupStabilitySig:mean 	0.70467574801296
scalar Network.dyn_peer[408] 	lookupHopsSig:mean 	25.5
scalar Network.dyn_peer[409] 	lookupTimeSig:mean 	1.6428571428571
scalar Network.dyn_peer[409] 	lookupStabilitySig:mean 	0.83798718572195
scalar Network.dyn_peer[409] 	lookupHopsSig:mean 	15.571428571429
scalar Network.dyn_peer[410] 	lookupTimeSig:mean 	1.8866666666667
scalar Network.dyn_peer[410] 	lookupStabilitySig:mean 	0.86858394769952
scalar Network.dyn_peer[410] 	lookupHopsSig:mean 	17.933333333333
scalar Network.dyn_peer[411] 	lookupTimeSig:mean 	1.4111111111111
scalar Network.dyn_peer[411] 	lookupStabilitySig:mean 	0.95613090704299
scalar Network.dyn_peer[411] 	lookupHopsSig:mean 	13.222222222222
scalar Network.dyn_peer[412] 	lookupTimeSig:mean 	1.5833333333333
scalar Network.dyn_peer[412] 	lookupStabilitySig:mean 	0.93471527356693
scalar Network.dyn_peer[412] 	lookupHopsSig:mean 	14.916666666667
scalar Network.dyn_peer[413] 	lookupTimeSig:mean 	4.7
scalar Network.dyn_peer[413] 	lookupStabilitySig:mean 	0.84493171796203
scalar Network.dyn_peer[413] 	lookupHopsSig:mean 	46.5
scalar Network.dyn_peer[414] 	lookupTimeSig:mean 	2
scalar Network.dyn_peer[414] 	lookupStabilitySig:mean 	0.73054241628519
scalar Network.dyn_peer[414] 	lookupHopsSig:mean 	19.142857142857
scalar Network.dyn_peer[415] 	lookupTimeSig:mean 	2.0333333333333
scalar Network.dyn_peer[415] 	lookupStabilitySig:mean 	0.94768251933985
scalar Network.dyn_peer[415] 	lookupHopsSig:mean 	19.444444444444
scalar Network.dyn_peer[416] 	lookupTimeSig:mean 	2.3
scalar Network.dyn_peer[416] 	lookupStabilitySig:mean 	0.89547435119748
scalar Network.dyn_peer[416] 	lookupHopsSig:mean 	22.2
scalar Network.dyn_peer[417] 	lookupTimeSig:mean 	1.95
scalar Network.dyn_peer[417] 	lookupStabilitySig:mean 	0.89205755465664
scalar Network.dyn_peer[417] 	lookupHopsSig:mean 	18.6
scalar Network.dyn_peer[418] 	lookupTimeSig:mean 	1.55
scalar Network.dyn_peer[418] 	lookupStabilitySig:mean 	0.93676056396216
scalar Network.dyn_peer[418] 	lookupHopsSig:mean 	14.6
scalar Network.dyn_peer[419] 	lookupTimeSig:mean 	2.3125
scalar Network.dyn_peer[419] 	lookupStabilitySig:mean 	0.95765997545095
scalar Network.dyn_peer[419] 	lookupHopsSig:mean 	22.25
scalar Network.dyn_peer[420] 	lookupTimeSig:mean 	1.3333333333333
scalar Network.dyn_peer[420] 	lookupStabilitySig:mean 	0.47595703881234
scalar Network.dyn_peer[420] 	lookupHopsSig:mean 	12.5
scalar Network.dyn_peer[421] 	lookupTimeSig:mean 	3.04
scalar Network.dyn_peer[421] 	lookupStabilitySig:mean 	0.93181388843805
scalar Network.dyn_peer[421] 	lookupHopsSig:mean 	29.6
scalar Network.dyn_peer[422] 	lookupTimeSig:mean 	2.1857142857143
[...]
scalar Network.dyn_peer[894] 	lookupHopsSig:mean 	12.285714285714
scalar Network.dyn_peer[895] 	lookupTimeSig:mean 	2.5666666666667
scalar Network.dyn_peer[895] 	lookupStabilitySig:mean 	0.87576889681319
scalar Network.dyn_peer[895] 	lookupHopsSig:mean 	25
scalar Network.dyn_peer[896] 	lookupTimeSig:mean 	1.6
scalar Network.dyn_peer[896] 	lookupStabilitySig:mean 	0.75273592676967
scalar Network.dyn_peer[896] 	lookupHopsSig:mean 	15.25
scalar Network.dyn_peer[897] 	lookupTimeSig:mean 	1.9
scalar Network.dyn_peer[897] 	lookupStabilitySig:mean 	0.39749999344349
scalar Network.dyn_peer[897] 	lookupHopsSig:mean 	18.25
scalar Network.dyn_peer[898] 	lookupTimeSig:mean 	1.375
scalar Network.dyn_peer[898] 	lookupStabilitySig:mean 	0.4502834752202
scalar Network.dyn_peer[898] 	lookupHopsSig:mean 	13
scalar Network.dyn_peer[899] 	lookupTimeSig:mean 	2.1222222222222
scalar Network.dyn_peer[899] 	lookupStabilitySig:mean 	0.91262725099093
scalar Network.dyn_peer[899] 	lookupHopsSig:mean 	20.333333333333
scalar Network.dyn_peer[900] 	lookupTimeSig:mean 	1.375
scalar Network.dyn_peer[900] 	lookupStabilitySig:mean 	0.46637809462845
scalar Network.dyn_peer[900] 	lookupHopsSig:mean 	13
scalar Network.dyn_peer[901] 	lookupTimeSig:mean 	2.15
scalar Network.dyn_peer[901] 	lookupStabilitySig:mean 	0.028640754520893
scalar Network.dyn_peer[901] 	lookupHopsSig:mean 	21
scalar Network.dyn_peer[902] 	lookupTimeSig:mean 	1.8714285714286
scalar Network.dyn_peer[902] 	lookupStabilitySig:mean 	0.83668559869485
scalar Network.dyn_peer[902] 	lookupHopsSig:mean 	17.857142857143
scalar Network.dyn_peer[903] 	lookupTimeSig:mean 	1.65
scalar Network.dyn_peer[903] 	lookupStabilitySig:mean 	0.64038723008707
scalar Network.dyn_peer[903] 	lookupHopsSig:mean 	15.666666666667
scalar Network.dyn_peer[904] 	lookupTimeSig:mean 	1.95
scalar Network.dyn_peer[904] 	lookupStabilitySig:mean 	0.63825257401913
scalar Network.dyn_peer[904] 	lookupHopsSig:mean 	18.75
scalar Network.dyn_peer[905] 	lookupTimeSig:mean 	2.0428571428571
scalar Network.dyn_peer[905] 	lookupStabilitySig:mean 	0.8969795259514
scalar Network.dyn_peer[905] 	lookupHopsSig:mean 	19.571428571429
scalar Network.dyn_peer[906] 	lookupTimeSig:mean 	1.3666666666667
scalar Network.dyn_peer[906] 	lookupStabilitySig:mean 	0.34705686072508
scalar Network.dyn_peer[906] 	lookupHopsSig:mean 	13
scalar Network.dyn_peer[907] 	lookupTimeSig:mean 	0.925
scalar Network.dyn_peer[907] 	lookupStabilitySig:mean 	0.5055555421859
scalar Network.dyn_peer[907] 	lookupHopsSig:mean 	8.5
scalar Network.dyn_peer[908] 	lookupTimeSig:mean 	3.15
scalar Network.dyn_peer[908] 	lookupStabilitySig:mean 	0.85136326402426
scalar Network.dyn_peer[908] 	lookupHopsSig:mean 	30.75
scalar Network.dyn_peer[909] 	lookupTimeSig:mean 	1.36
scalar Network.dyn_peer[909] 	lookupStabilitySig:mean 	0.6090244628489
scalar Network.dyn_peer[909] 	lookupHopsSig:mean 	12.8
scalar Network.dyn_peer[910] 	lookupTimeSig:mean 	1.45
scalar Network.dyn_peer[910] 	lookupStabilitySig:mean 	0.11964286863804
scalar Network.dyn_peer[910] 	lookupHopsSig:mean 	14
scalar Network.dyn_peer[911] 	lookupTimeSig:mean 	2.0166666666667
scalar Network.dyn_peer[911] 	lookupStabilitySig:mean 	0.93001962359995
scalar Network.dyn_peer[911] 	lookupHopsSig:mean 	19.333333333333
scalar Network.dyn_peer[912] 	lookupTimeSig:mean 	2.35
scalar Network.dyn_peer[912] 	lookupStabilitySig:mean 	0.8399427626282
scalar Network.dyn_peer[912] 	lookupHopsSig:mean 	22.75
scalar Network.dyn_peer[913] 	lookupTimeSig:mean 	1.5
scalar Network.dyn_peer[913] 	lookupStabilitySig:mean 	0.91380507929716
scalar Network.dyn_peer[913] 	lookupHopsSig:mean 	14.125
scalar Network.dyn_peer[914] 	lookupTimeSig:mean 	2.9666666666667
scalar Network.dyn_peer[914] 	lookupStabilitySig:mean 	0.78571477284034
scalar Network.dyn_peer[914] 	lookupHopsSig:mean 	29
scalar Network.dyn_peer[915] 	lookupTimeSig:mean 	1.42
scalar Network.dyn_peer[915] 	lookupStabilitySig:mean 	0.64952125772834
scalar Network.dyn_peer[915] 	lookupHopsSig:mean 	13.4
scalar Network.dyn_peer[916] 	lookupTimeSig:mean 	1.98
scalar Network.dyn_peer[916] 	lookupStabilitySig:mean 	0.87973477356136
scalar Network.dyn_peer[916] 	lookupHopsSig:mean 	19
scalar Network.dyn_peer[917] 	lookupTimeSig:mean 	1.85
scalar Network.dyn_peer[917] 	lookupStabilitySig:mean 	0.8754478211049
scalar Network.dyn_peer[917] 	lookupHopsSig:mean 	17.666666666667
scalar Network.dyn_peer[918] 	lookupTimeSig:mean 	3.25
scalar Network.dyn_peer[918] 	lookupStabilitySig:mean 	0.79082033410668
scalar Network.dyn_peer[918] 	lookupHopsSig:mean 	32
scalar Network.dyn_peer[919] 	lookupTimeSig:mean 	1.65
scalar Network.dyn_peer[919] 	lookupStabilitySig:mean 	0.61633552331477
scalar Network.dyn_peer[919] 	lookupHopsSig:mean 	15.75
scalar Network.dyn_peer[920] 	lookupTimeSig:mean 	1.5833333333333
scalar Network.dyn_peer[920] 	lookupStabilitySig:mean 	0.88364441941182
scalar Network.dyn_peer[920] 	lookupHopsSig:mean 	14.916666666667
scalar Network.dyn_peer[921] 	lookupTimeSig:mean 	3.725
scalar Network.dyn_peer[921] 	lookupStabilitySig:mean 	0.57542064692825
scalar Network.dyn_peer[921] 	lookupHopsSig:mean 	36.5
scalar Network.dyn_peer[922] 	lookupTimeSig:mean 	2.18
scalar Network.dyn_peer[922] 	lookupStabilitySig:mean 	0.88172593005002
scalar Network.dyn_peer[922] 	lookupHopsSig:mean 	21
scalar Network.dyn_peer[923] 	lookupTimeSig:mean 	1.5833333333333
scalar Network.dyn_peer[923] 	lookupStabilitySig:mean 	0.91400847234763
scalar Network.dyn_peer[923] 	lookupHopsSig:mean 	15
scalar Network.dyn_peer[924] 	lookupTimeSig:mean 	1.5666666666667
scalar Network.dyn_peer[924] 	lookupStabilitySig:mean 	0.32615909725428
scalar Network.dyn_peer[924] 	lookupHopsSig:mean 	15
scalar Network.dyn_peer[925] 	lookupTimeSig:mean 	1.5875
scalar Network.dyn_peer[925] 	lookupStabilitySig:mean 	0.90947248623706
scalar Network.dyn_peer[925] 	lookupHopsSig:mean 	15
scalar Network.dyn_peer[926] 	lookupTimeSig:mean 	1.6714285714286
scalar Network.dyn_peer[926] 	lookupStabilitySig:mean 	0.92426757281646
scalar Network.dyn_peer[926] 	lookupHopsSig:mean 	15.857142857143
scalar Network.dyn_peer[927] 	lookupTimeSig:mean 	2.0333333333333
scalar Network.dyn_peer[927] 	lookupStabilitySig:mean 	0.76624348635475
scalar Network.dyn_peer[927] 	lookupHopsSig:mean 	19.666666666667
scalar Network.dyn_peer[928] 	lookupTimeSig:mean 	1.0444444444444
scalar Network.dyn_peer[928] 	lookupStabilitySig:mean 	0.92404625471681
scalar Network.dyn_peer[928] 	lookupHopsSig:mean 	9.5555555555556
scalar Network.dyn_peer[929] 	lookupTimeSig:mean 	1.725
scalar Network.dyn_peer[929] 	lookupStabilitySig:mean 	0.40775971673429
scalar Network.dyn_peer[929] 	lookupHopsSig:mean 	16.5
scalar Network.dyn_peer[930] 	lookupTimeSig:mean 	1.4875
scalar Network.dyn_peer[930] 	lookupStabilitySig:mean 	0.91713441978209
scalar Network.dyn_peer[930] 	lookupHopsSig:mean 	14
scalar Network.dyn_peer[931] 	lookupTimeSig:mean 	1.8375
scalar Network.dyn_peer[931] 	lookupStabilitySig:mean 	0.95372995728394
scalar Network.dyn_peer[931] 	lookupHopsSig:mean 	17.5
scalar Network.dyn_peer[932] 	lookupTimeSig:mean 	2.0375
scalar Network.dyn_peer[932] 	lookupStabilitySig:mean 	0.95159100810997
scalar Network.dyn_peer[932] 	lookupHopsSig:mean 	19.5
scalar Network.dyn_peer[933] 	lookupTimeSig:mean 	1.92
scalar Network.dyn_peer[933] 	lookupStabilitySig:mean 	0.54033563323319
scalar Network.dyn_peer[933] 	lookupHopsSig:mean 	18.4
scalar Network.dyn_peer[934] 	lookupTimeSig:mean 	2.4666666666667
scalar Network.dyn_peer[934] 	lookupStabilitySig:mean 	0.74923730144898
scalar Network.dyn_peer[934] 	lookupHopsSig:mean 	24
scalar Network.dyn_peer[935] 	lookupTimeSig:mean 	1.11
scalar Network.dyn_peer[935] 	lookupStabilitySig:mean 	0.89138891296461
scalar Network.dyn_peer[935] 	lookupHopsSig:mean 	10.2
scalar Network.dyn_peer[936] 	lookupTimeSig:mean 	1.78
scalar Network.dyn_peer[936] 	lookupStabilitySig:mean 	0.64573707524687
scalar Network.dyn_peer[936] 	lookupHopsSig:mean 	17
scalar Network.dyn_peer[937] 	lookupTimeSig:mean 	1.2333333333333
scalar Network.dyn_peer[937] 	lookupStabilitySig:mean 	0.33492063979308
scalar Network.dyn_peer[937] 	lookupHopsSig:mean 	11.666666666667
scalar Network.dyn_peer[938] 	lookupTimeSig:mean 	3.3
scalar Network.dyn_peer[938] 	lookupStabilitySig:mean 	0.046493500471115
scalar Network.dyn_peer[938] 	lookupHopsSig:mean 	32.5
scalar Network.dyn_peer[939] 	lookupTimeSig:mean 	1.8333333333333
scalar Network.dyn_peer[939] 	lookupStabilitySig:mean 	0.58661717673143
scalar Network.dyn_peer[939] 	lookupHopsSig:mean 	17.666666666667
scalar Network.dyn_peer[940] 	lookupTimeSig:mean 	2.3444444444444
scalar Network.dyn_peer[940] 	lookupStabilitySig:mean 	0.95390270671083
scalar Network.dyn_peer[940] 	lookupHopsSig:mean 	22.555555555556
scalar Network.dyn_peer[941] 	lookupTimeSig:mean 	1.95
scalar Network.dyn_peer[941] 	lookupStabilitySig:mean 	0.89666324512412
scalar Network.dyn_peer[941] 	lookupHopsSig:mean 	18.666666666667
scalar Network.dyn_peer[942] 	lookupTimeSig:mean 	1.6333333333333
scalar Network.dyn_peer[942] 	lookupStabilitySig:mean 	0.79387259234985
scalar Network.dyn_peer[942] 	lookupHopsSig:mean 	15.666666666667
scalar Network.dyn_peer[943] 	lookupTimeSig:mean 	1.3
scalar Network.dyn_peer[943] 	lookupStabilitySig:mean 	0.69706973063876
scalar Network.dyn_peer[943] 	lookupHopsSig:mean 	12.125
scalar Network.dyn_peer[944] 	lookupTimeSig:mean 	2.95
scalar Network.dyn_peer[944] 	lookupStabilitySig:mean 	0.75130792707205
scalar Network.dyn_peer[944] 	lookupHopsSig:mean 	29
scalar Network.dyn_peer[945] 	lookupTimeSig:mean 	1.5785714285714
scalar Network.dyn_peer[945] 	lookupStabilitySig:mean 	0.88151426882749
scalar Network.dyn_peer[945] 	lookupHopsSig:mean 	14.857142857143
scalar Network.dyn_peer[946] 	lookupTimeSig:mean 	1.525
scalar Network.dyn_peer[946] 	lookupStabilitySig:mean 	0.41812955588102
scalar Network.dyn_peer[946] 	lookupHopsSig:mean 	14.5
scalar Network.dyn_peer[947] 	lookupTimeSig:mean 	1.7
scalar Network.dyn_peer[947] 	lookupStabilitySig:mean 	0.89332479812826
scalar Network.dyn_peer[947] 	lookupHopsSig:mean 	16.166666666667
scalar Network.dyn_peer[948] 	lookupTimeSig:mean 	2.8
scalar Network.dyn_peer[948] 	lookupStabilitySig:mean 	0.81677922606468
scalar Network.dyn_peer[948] 	lookupHopsSig:mean 	27.333333333333
scalar Network.dyn_peer[949] 	lookupTimeSig:mean 	2.775
scalar Network.dyn_peer[949] 	lookupStabilitySig:mean 	0.92097362806089
scalar Network.dyn_peer[949] 	lookupHopsSig:mean 	27
scalar Network.dyn_peer[950] 	lookupTimeSig:mean 	2.1142857142857
scalar Network.dyn_peer[950] 	lookupStabilitySig:mean 	0.92534622297223
scalar Network.dyn_peer[950] 	lookupHopsSig:mean 	20.285714285714
scalar Network.dyn_peer[951] 	lookupTimeSig:mean 	1.8375
scalar Network.dyn_peer[951] 	lookupStabilitySig:mean 	0.91543234372512
scalar Network.dyn_peer[951] 	lookupHopsSig:mean 	17.5
scalar Network.dyn_peer[952] 	lookupTimeSig:mean 	2.45
scalar Network.dyn_peer[952] 	lookupStabilitySig:mean 	0.89100634464994
scalar Network.dyn_peer[952] 	lookupHopsSig:mean 	23.6
scalar Network.dyn_peer[953] 	lookupTimeSig:mean 	1.46
scalar Network.dyn_peer[953] 	lookupStabilitySig:mean 	0.87029263935983
scalar Network.dyn_peer[953] 	lookupHopsSig:mean 	13.8
scalar Network.dyn_peer[954] 	lookupTimeSig:mean 	2.3
scalar Network.dyn_peer[954] 	lookupStabilitySig:mean 	0.93622619425878
scalar Network.dyn_peer[954] 	lookupHopsSig:mean 	22.166666666667
scalar Network.dyn_peer[955] 	lookupTimeSig:mean 	1.3666666666667
scalar Network.dyn_peer[955] 	lookupStabilitySig:mean 	0.67692259916415
scalar Network.dyn_peer[955] 	lookupHopsSig:mean 	12.833333333333
scalar Network.dyn_peer[956] 	lookupTimeSig:mean 	1.8666666666667
scalar Network.dyn_peer[956] 	lookupStabilitySig:mean 	0.76384715197815
scalar Network.dyn_peer[956] 	lookupHopsSig:mean 	17.777777777778
scalar Network.dyn_peer[957] 	lookupTimeSig:mean 	1.05
scalar Network.dyn_peer[957] 	lookupStabilitySig:mean 	0.44134614244103
scalar Network.dyn_peer[957] 	lookupHopsSig:mean 	9.75
scalar Network.dyn_peer[958] 	lookupTimeSig:mean 	1.5285714285714
scalar Network.dyn_peer[958] 	lookupStabilitySig:mean 	0.82270587195775
scalar Network.dyn_peer[958] 	lookupHopsSig:mean 	14.428571428571
scalar Network.dyn_peer[959] 	lookupTimeSig:mean 	1
scalar Network.dyn_peer[959] 	lookupStabilitySig:mean 	0.33255522946517
scalar Network.dyn_peer[959] 	lookupHopsSig:mean 	9.3333333333333
scalar Network.dyn_peer[960] 	lookupTimeSig:mean 	2.45
scalar Network.dyn_peer[960] 	lookupStabilitySig:mean 	0.94442925648764
scalar Network.dyn_peer[960] 	lookupHopsSig:mean 	23.666666666667
scalar Network.dyn_peer[961] 	lookupTimeSig:mean 	1.6125
scalar Network.dyn_peer[961] 	lookupStabilitySig:mean 	0.96118172060233
scalar Network.dyn_peer[961] 	lookupHopsSig:mean 	15.25
scalar Network.dyn_peer[962] 	lookupTimeSig:mean 	2.4
scalar Network.dyn_peer[962] 	lookupStabilitySig:mean 	0.49787067870299
scalar Network.dyn_peer[962] 	lookupHopsSig:mean 	23.333333333333
scalar Network.dyn_peer[963] 	lookupTimeSig:mean 	2.98
scalar Network.dyn_peer[963] 	lookupStabilitySig:mean 	0.90710404850543
scalar Network.dyn_peer[963] 	lookupHopsSig:mean 	29
scalar Network.dyn_peer[964] 	lookupTimeSig:mean 	1.5666666666667
scalar Network.dyn_peer[964] 	lookupStabilitySig:mean 	0.21473967532317
scalar Network.dyn_peer[964] 	lookupHopsSig:mean 	15
scalar Network.dyn_peer[965] 	lookupTimeSig:mean 	1.83
scalar Network.dyn_peer[965] 	lookupStabilitySig:mean 	0.83876228835434
scalar Network.dyn_peer[965] 	lookupHopsSig:mean 	17.4
scalar Network.dyn_peer[966] 	lookupTimeSig:mean 	1.8666666666667
scalar Network.dyn_peer[966] 	lookupStabilitySig:mean 	0.50570926566919
scalar Network.dyn_peer[966] 	lookupHopsSig:mean 	18
scalar Network.dyn_peer[967] 	lookupTimeSig:mean 	1.725
scalar Network.dyn_peer[967] 	lookupStabilitySig:mean 	0.95809624996036
scalar Network.dyn_peer[967] 	lookupHopsSig:mean 	16.333333333333
scalar Network.dyn_peer[968] 	lookupTimeSig:mean 	2.36
scalar Network.dyn_peer[968] 	lookupStabilitySig:mean 	0.92679105540738
scalar Network.dyn_peer[968] 	lookupHopsSig:mean 	22.8
scalar Network.dyn_peer[969] 	lookupTimeSig:mean 	2.28
scalar Network.dyn_peer[969] 	lookupStabilitySig:mean 	0.5863610111177
scalar Network.dyn_peer[969] 	lookupHopsSig:mean 	22
scalar Network.dyn_peer[970] 	lookupTimeSig:mean 	0.96
scalar Network.dyn_peer[970] 	lookupStabilitySig:mean 	0.7992294145748
scalar Network.dyn_peer[970] 	lookupHopsSig:mean 	8.7
scalar Network.dyn_peer[971] 	lookupTimeSig:mean 	2.8333333333333
scalar Network.dyn_peer[971] 	lookupStabilitySig:mean 	0.71316838388642
scalar Network.dyn_peer[971] 	lookupHopsSig:mean 	27.666666666667
scalar Network.dyn_peer[972] 	lookupTimeSig:mean 	1.76
scalar Network.dyn_peer[972] 	lookupStabilitySig:mean 	0.93598787309602
scalar Network.dyn_peer[972] 	lookupHopsSig:mean 	16.7
scalar Network.dyn_peer[973] 	lookupTimeSig:mean 	4.55
scalar Network.dyn_peer[973] 	lookupStabilitySig:mean 	0.15043064206839
scalar Network.dyn_peer[973] 	lookupHopsSig:mean 	45
scalar Network.dyn_peer[974] 	lookupTimeSig:mean 	2.1
scalar Network.dyn_peer[974] 	lookupStabilitySig:mean 	0.87480912404135
scalar Network.dyn_peer[974] 	lookupHopsSig:mean 	20.25
scalar Network.dyn_peer[975] 	lookupTimeSig:mean 	1.5875
scalar Network.dyn_peer[975] 	lookupStabilitySig:mean 	0.80278199660825
scalar Network.dyn_peer[975] 	lookupHopsSig:mean 	15
scalar Network.dyn_peer[976] 	lookupTimeSig:mean 	1.46
scalar Network.dyn_peer[976] 	lookupStabilitySig:mean 	0.77117091044784
scalar Network.dyn_peer[976] 	lookupHopsSig:mean 	13.8
scalar Network.dyn_peer[977] 	lookupTimeSig:mean 	2.2333333333333
scalar Network.dyn_peer[977] 	lookupStabilitySig:mean 	0.91499924628685
scalar Network.dyn_peer[977] 	lookupHopsSig:mean 	21.5
scalar Network.dyn_peer[978] 	lookupTimeSig:mean 	2.2
scalar Network.dyn_peer[978] 	lookupStabilitySig:mean 	0.58618998713791
scalar Network.dyn_peer[978] 	lookupHopsSig:mean 	21.166666666667
scalar Network.dyn_peer[979] 	lookupTimeSig:mean 	2.1428571428571
scalar Network.dyn_peer[979] 	lookupStabilitySig:mean 	0.95261657317834
scalar Network.dyn_peer[979] 	lookupHopsSig:mean 	20.571428571429
scalar Network.dyn_peer[980] 	lookupTimeSig:mean 	1.1333333333333
scalar Network.dyn_peer[980] 	lookupStabilitySig:mean 	0.41856451084216
scalar Network.dyn_peer[980] 	lookupHopsSig:mean 	10.666666666667
scalar Network.dyn_peer[981] 	lookupTimeSig:mean 	1.6125
scalar Network.dyn_peer[981] 	lookupStabilitySig:mean 	0.72834944934584
scalar Network.dyn_peer[981] 	lookupHopsSig:mean 	15.25
scalar Network.dyn_peer[982] 	lookupTimeSig:mean 	1.16
scalar Network.dyn_peer[982] 	lookupStabilitySig:mean 	0.81039573103189
scalar Network.dyn_peer[982] 	lookupHopsSig:mean 	10.8
scalar Network.dyn_peer[983] 	lookupTimeSig:mean 	3.3
scalar Network.dyn_peer[983] 	lookupStabilitySig:mean 	0.20506910979748
scalar Network.dyn_peer[983] 	lookupHopsSig:mean 	32.5
scalar Network.dyn_peer[984] 	lookupTimeSig:mean 	1.6142857142857
scalar Network.dyn_peer[984] 	lookupStabilitySig:mean 	0.76085577845307
scalar Network.dyn_peer[984] 	lookupHopsSig:mean 	15.285714285714
scalar Network.dyn_peer[985] 	lookupTimeSig:mean 	0.88
scalar Network.dyn_peer[985] 	lookupStabilitySig:mean 	0.4792965054512
scalar Network.dyn_peer[985] 	lookupHopsSig:mean 	8
scalar Network.dyn_peer[986] 	lookupTimeSig:mean 	3.25
scalar Network.dyn_peer[986] 	lookupStabilitySig:mean 	0.72010729089379
scalar Network.dyn_peer[986] 	lookupHopsSig:mean 	32
scalar Network.dyn_peer[987] 	lookupTimeSig:mean 	2.075
scalar Network.dyn_peer[987] 	lookupStabilitySig:mean 	0.83430744148791
scalar Network.dyn_peer[987] 	lookupHopsSig:mean 	20
scalar Network.dyn_peer[988] 	lookupTimeSig:mean 	2.06
scalar Network.dyn_peer[988] 	lookupStabilitySig:mean 	0.95324119683355
scalar Network.dyn_peer[988] 	lookupHopsSig:mean 	19.7
scalar Network.dyn_peer[989] 	lookupTimeSig:mean 	1.6285714285714
scalar Network.dyn_peer[989] 	lookupStabilitySig:mean 	0.78415902304862
scalar Network.dyn_peer[989] 	lookupHopsSig:mean 	15.428571428571
scalar Network.dyn_peer[990] 	lookupTimeSig:mean 	2.35
scalar Network.dyn_peer[990] 	lookupStabilitySig:mean 	0.45384614914656
scalar Network.dyn_peer[990] 	lookupHopsSig:mean 	23
scalar Network.dyn_peer[991] 	lookupTimeSig:mean 	4.5666666666667
scalar Network.dyn_peer[991] 	lookupStabilitySig:mean 	0.91058447522422
scalar Network.dyn_peer[991] 	lookupHopsSig:mean 	45
scalar Network.dyn_peer[992] 	lookupTimeSig:mean 	2.0571428571429
scalar Network.dyn_peer[992] 	lookupStabilitySig:mean 	0.84308136015066
scalar Network.dyn_peer[992] 	lookupHopsSig:mean 	19.714285714286
scalar Network.dyn_peer[993] 	lookupTimeSig:mean 	1.8833333333333
scalar Network.dyn_peer[993] 	lookupStabilitySig:mean 	0.86916212861737
scalar Network.dyn_peer[993] 	lookupHopsSig:mean 	18
scalar Network.dyn_peer[994] 	lookupTimeSig:mean 	1.6285714285714
scalar Network.dyn_peer[994] 	lookupStabilitySig:mean 	0.7465440894344
scalar Network.dyn_peer[994] 	lookupHopsSig:mean 	15.428571428571
scalar Network.dyn_peer[995] 	lookupTimeSig:mean 	1.44
scalar Network.dyn_peer[995] 	lookupStabilitySig:mean 	0.69419862106442
scalar Network.dyn_peer[995] 	lookupHopsSig:mean 	13.6
scalar Network.dyn_peer[996] 	lookupTimeSig:mean 	1.7333333333333
scalar Network.dyn_peer[996] 	lookupStabilitySig:mean 	0.51392088830471
scalar Network.dyn_peer[996] 	lookupHopsSig:mean 	16.666666666667
scalar Network.dyn_peer[997] 	lookupTimeSig:mean 	3.8
scalar Network.dyn_peer[997] 	lookupStabilitySig:mean 	0.75247706845403
scalar Network.dyn_peer[997] 	lookupHopsSig:mean 	37.5
scalar Network.dyn_peer[998] 	lookupTimeSig:mean 	1.55
scalar Network.dyn_peer[998] 	lookupStabilitySig:mean 	0.36453200876713
scalar Network.dyn_peer[998] 	lookupHopsSig:mean 	15
scalar Network.dyn_peer[999] 	lookupTimeSig:mean 	2.1
scalar Network.dyn_peer[999] 	lookupStabilitySig:mean 	0.95564436985712
scalar Network.dyn_peer[999] 	lookupHopsSig:mean 	20.142857142857
scalar Network.churner 	inGoingSizeSig:mean 	498.95404595405
