version 2
run Stability2-214-20130526-00:52:31-26640
attr configname Stability2
attr datetime 20130526-00:52:31
attr experiment Stability2
attr inifile omnetpp.ini
attr iterationvars $0=300
attr iterationvars2 "$0=300, $repetition=4"
attr measurement $0=300
attr network Network
attr processid 26640
attr repetition 4
attr replication #4
attr resultdir results
attr runnumber 214
attr seedset 214

scalar Network.dyn_peer[0] 	lookupTimeSig:mean 	1.36
scalar Network.dyn_peer[0] 	lookupStabilitySig:mean 	0.64684951156378
scalar Network.dyn_peer[0] 	lookupHopsSig:mean 	12.8
scalar Network.dyn_peer[1] 	lookupTimeSig:mean 	0.55
scalar Network.dyn_peer[1] 	lookupStabilitySig:mean 	0.48888888396323
scalar Network.dyn_peer[1] 	lookupHopsSig:mean 	4.75
scalar Network.dyn_peer[2] 	lookupTimeSig:mean 	0.65
scalar Network.dyn_peer[2] 	lookupStabilitySig:mean 	0.57121211290359
scalar Network.dyn_peer[2] 	lookupHopsSig:mean 	5.75
scalar Network.dyn_peer[3] 	lookupTimeSig:mean 	0.7
scalar Network.dyn_peer[3] 	lookupStabilitySig:mean 	0.71220884327259
scalar Network.dyn_peer[3] 	lookupHopsSig:mean 	6.1111111111111
scalar Network.dyn_peer[4] 	lookupTimeSig:mean 	1.0333333333333
scalar Network.dyn_peer[4] 	lookupStabilitySig:mean 	0.63009738114973
scalar Network.dyn_peer[4] 	lookupHopsSig:mean 	9.5
scalar Network.dyn_peer[5] 	lookupTimeSig:mean 	0.64
scalar Network.dyn_peer[5] 	lookupStabilitySig:mean 	0.56726190298796
scalar Network.dyn_peer[5] 	lookupHopsSig:mean 	5.6
scalar Network.dyn_peer[6] 	lookupTimeSig:mean 	1.0571428571429
scalar Network.dyn_peer[6] 	lookupStabilitySig:mean 	0.5884541581784
scalar Network.dyn_peer[6] 	lookupHopsSig:mean 	9.7142857142857
scalar Network.dyn_peer[7] 	lookupTimeSig:mean 	0.925
scalar Network.dyn_peer[7] 	lookupStabilitySig:mean 	0.79324171218711
scalar Network.dyn_peer[7] 	lookupHopsSig:mean 	8.3333333333333
scalar Network.dyn_peer[8] 	lookupTimeSig:mean 	0.81666666666667
scalar Network.dyn_peer[8] 	lookupStabilitySig:mean 	0.59589684940875
scalar Network.dyn_peer[8] 	lookupHopsSig:mean 	7.3333333333333
scalar Network.dyn_peer[9] 	lookupTimeSig:mean 	1.2428571428571
scalar Network.dyn_peer[9] 	lookupStabilitySig:mean 	0.67812439247168
scalar Network.dyn_peer[9] 	lookupHopsSig:mean 	11.571428571429
scalar Network.dyn_peer[10] 	lookupTimeSig:mean 	1.0666666666667
scalar Network.dyn_peer[10] 	lookupStabilitySig:mean 	0.16388888160388
scalar Network.dyn_peer[10] 	lookupHopsSig:mean 	10
scalar Network.dyn_peer[11] 	lookupTimeSig:mean 	0.56666666666667
scalar Network.dyn_peer[11] 	lookupStabilitySig:mean 	0.4277777671814
scalar Network.dyn_peer[11] 	lookupHopsSig:mean 	5
scalar Network.dyn_peer[12] 	lookupTimeSig:mean 	1.625
scalar Network.dyn_peer[12] 	lookupStabilitySig:mean 	0.55733475740999
scalar Network.dyn_peer[12] 	lookupHopsSig:mean 	15.5
scalar Network.dyn_peer[13] 	lookupTimeSig:mean 	1.1666666666667
scalar Network.dyn_peer[13] 	lookupStabilitySig:mean 	0.32222220301628
scalar Network.dyn_peer[13] 	lookupHopsSig:mean 	11
scalar Network.dyn_peer[14] 	lookupTimeSig:mean 	1.25
scalar Network.dyn_peer[14] 	lookupStabilitySig:mean 	0.61411691457033
scalar Network.dyn_peer[14] 	lookupHopsSig:mean 	11.75
scalar Network.dyn_peer[15] 	lookupTimeSig:mean 	0.98571428571429
scalar Network.dyn_peer[15] 	lookupStabilitySig:mean 	0.65475962736777
scalar Network.dyn_peer[15] 	lookupHopsSig:mean 	9
scalar Network.dyn_peer[16] 	lookupTimeSig:mean 	0.675
scalar Network.dyn_peer[16] 	lookupStabilitySig:mean 	0.45836692443117
scalar Network.dyn_peer[16] 	lookupHopsSig:mean 	6
scalar Network.dyn_peer[17] 	lookupTimeSig:mean 	0.75714285714286
scalar Network.dyn_peer[17] 	lookupStabilitySig:mean 	0.73249404531504
scalar Network.dyn_peer[17] 	lookupHopsSig:mean 	6.7142857142857
scalar Network.dyn_peer[18] 	lookupTimeSig:mean 	1
scalar Network.dyn_peer[18] 	lookupStabilitySig:mean 	0.63217276920165
scalar Network.dyn_peer[18] 	lookupHopsSig:mean 	9.1428571428571
scalar Network.dyn_peer[19] 	lookupTimeSig:mean 	0.925
scalar Network.dyn_peer[19] 	lookupStabilitySig:mean 	0.73006867663935
scalar Network.dyn_peer[19] 	lookupHopsSig:mean 	8.5
scalar Network.dyn_peer[20] 	lookupTimeSig:mean 	1.2166666666667
scalar Network.dyn_peer[20] 	lookupStabilitySig:mean 	0.77699528199931
scalar Network.dyn_peer[20] 	lookupHopsSig:mean 	11.333333333333
scalar Network.dyn_peer[21] 	lookupTimeSig:mean 	1.2
scalar Network.dyn_peer[21] 	lookupStabilitySig:mean 	0.58892466438313
scalar Network.dyn_peer[21] 	lookupHopsSig:mean 	11.166666666667
scalar Network.dyn_peer[22] 	lookupTimeSig:mean 	1.0666666666667
scalar Network.dyn_peer[22] 	lookupStabilitySig:mean 	0.46480938295523
scalar Network.dyn_peer[22] 	lookupHopsSig:mean 	10
scalar Network.dyn_peer[23] 	lookupTimeSig:mean 	1.24
scalar Network.dyn_peer[23] 	lookupStabilitySig:mean 	0.53037777915597
scalar Network.dyn_peer[23] 	lookupHopsSig:mean 	11.6
scalar Network.dyn_peer[24] 	lookupTimeSig:mean 	1.1666666666667
scalar Network.dyn_peer[24] 	lookupStabilitySig:mean 	0.40410958727201
scalar Network.dyn_peer[24] 	lookupHopsSig:mean 	11
scalar Network.dyn_peer[25] 	lookupTimeSig:mean 	0.86666666666667
scalar Network.dyn_peer[25] 	lookupStabilitySig:mean 	0.80280764525135
scalar Network.dyn_peer[25] 	lookupHopsSig:mean 	7.8333333333333
scalar Network.dyn_peer[26] 	lookupTimeSig:mean 	0.63333333333333
scalar Network.dyn_peer[26] 	lookupStabilitySig:mean 	0.73600974461685
scalar Network.dyn_peer[26] 	lookupHopsSig:mean 	5.5
scalar Network.dyn_peer[27] 	lookupTimeSig:mean 	0.68
scalar Network.dyn_peer[27] 	lookupStabilitySig:mean 	0.54736144021153
scalar Network.dyn_peer[27] 	lookupHopsSig:mean 	6
scalar Network.dyn_peer[28] 	lookupTimeSig:mean 	2
scalar Network.dyn_peer[28] 	lookupStabilitySig:mean 	0.70808080583811
scalar Network.dyn_peer[28] 	lookupHopsSig:mean 	19.5
scalar Network.dyn_peer[29] 	lookupTimeSig:mean 	1.7
scalar Network.dyn_peer[29] 	lookupStabilitySig:mean 	0.62904283776879
scalar Network.dyn_peer[29] 	lookupHopsSig:mean 	16.25
scalar Network.dyn_peer[30] 	lookupTimeSig:mean 	1.1
scalar Network.dyn_peer[30] 	lookupStabilitySig:mean 	0.62941179734965
scalar Network.dyn_peer[30] 	lookupHopsSig:mean 	10.166666666667
scalar Network.dyn_peer[31] 	lookupTimeSig:mean 	1.3333333333333
scalar Network.dyn_peer[31] 	lookupStabilitySig:mean 	0.75696569556991
scalar Network.dyn_peer[31] 	lookupHopsSig:mean 	12.666666666667
scalar Network.dyn_peer[32] 	lookupTimeSig:mean 	0.96
scalar Network.dyn_peer[32] 	lookupStabilitySig:mean 	0.56561055481434
scalar Network.dyn_peer[32] 	lookupHopsSig:mean 	8.8
scalar Network.dyn_peer[33] 	lookupTimeSig:mean 	0.3
scalar Network.dyn_peer[33] 	lookupStabilitySig:mean 	0.57857141643763
scalar Network.dyn_peer[33] 	lookupHopsSig:mean 	2.25
scalar Network.dyn_peer[34] 	lookupTimeSig:mean 	1.1
scalar Network.dyn_peer[34] 	lookupStabilitySig:mean 	0.16094277302424
scalar Network.dyn_peer[34] 	lookupHopsSig:mean 	10.333333333333
scalar Network.dyn_peer[35] 	lookupTimeSig:mean 	1.4285714285714
scalar Network.dyn_peer[35] 	lookupStabilitySig:mean 	0.66249891796282
scalar Network.dyn_peer[35] 	lookupHopsSig:mean 	13.428571428571
scalar Network.dyn_peer[36] 	lookupTimeSig:mean 	1.1166666666667
scalar Network.dyn_peer[36] 	lookupStabilitySig:mean 	0.58090130550166
scalar Network.dyn_peer[36] 	lookupHopsSig:mean 	10.333333333333
scalar Network.dyn_peer[37] 	lookupTimeSig:mean 	1.4
scalar Network.dyn_peer[37] 	lookupStabilitySig:mean 	0.077777788043022
scalar Network.dyn_peer[37] 	lookupHopsSig:mean 	13.5
scalar Network.dyn_peer[38] 	lookupTimeSig:mean 	0.9
scalar Network.dyn_peer[38] 	lookupStabilitySig:mean 	0.46965969949961
scalar Network.dyn_peer[38] 	lookupHopsSig:mean 	8.2
scalar Network.dyn_peer[39] 	lookupTimeSig:mean 	1.1142857142857
scalar Network.dyn_peer[39] 	lookupStabilitySig:mean 	0.75547043846122
scalar Network.dyn_peer[39] 	lookupHopsSig:mean 	10.285714285714
scalar Network.dyn_peer[40] 	lookupTimeSig:mean 	0.96666666666667
scalar Network.dyn_peer[40] 	lookupStabilitySig:mean 	0.74576064882179
scalar Network.dyn_peer[40] 	lookupHopsSig:mean 	8.7777777777778
scalar Network.dyn_peer[41] 	lookupTimeSig:mean 	1.4166666666667
scalar Network.dyn_peer[41] 	lookupStabilitySig:mean 	0.85623487581809
scalar Network.dyn_peer[41] 	lookupHopsSig:mean 	13.333333333333
scalar Network.dyn_peer[42] 	lookupTimeSig:mean 	1.04
scalar Network.dyn_peer[42] 	lookupStabilitySig:mean 	0.48374148756266
scalar Network.dyn_peer[42] 	lookupHopsSig:mean 	9.6
scalar Network.dyn_peer[43] 	lookupTimeSig:mean 	0.95714285714286
scalar Network.dyn_peer[43] 	lookupStabilitySig:mean 	0.67957620109831
scalar Network.dyn_peer[43] 	lookupHopsSig:mean 	8.7142857142857
scalar Network.dyn_peer[44] 	lookupTimeSig:mean 	1.2428571428571
scalar Network.dyn_peer[44] 	lookupStabilitySig:mean 	0.90323022460299
scalar Network.dyn_peer[44] 	lookupHopsSig:mean 	11.571428571429
scalar Network.dyn_peer[45] 	lookupTimeSig:mean 	0.96
scalar Network.dyn_peer[45] 	lookupStabilitySig:mean 	0.51241270750761
scalar Network.dyn_peer[45] 	lookupHopsSig:mean 	8.8
scalar Network.dyn_peer[46] 	lookupTimeSig:mean 	1.4
scalar Network.dyn_peer[46] 	lookupStabilitySig:mean 	0.70417389273643
scalar Network.dyn_peer[46] 	lookupHopsSig:mean 	13.333333333333
scalar Network.dyn_peer[47] 	lookupTimeSig:mean 	1.35
scalar Network.dyn_peer[47] 	lookupStabilitySig:mean 	0.85394963528961
scalar Network.dyn_peer[47] 	lookupHopsSig:mean 	12.75
scalar Network.dyn_peer[48] 	lookupTimeSig:mean 	1.35
scalar Network.dyn_peer[48] 	lookupStabilitySig:mean 	0.63629274070263
scalar Network.dyn_peer[48] 	lookupHopsSig:mean 	12.75
scalar Network.dyn_peer[49] 	lookupTimeSig:mean 	1.38
scalar Network.dyn_peer[49] 	lookupStabilitySig:mean 	0.52985433675349
scalar Network.dyn_peer[49] 	lookupHopsSig:mean 	13
scalar Network.dyn_peer[50] 	lookupTimeSig:mean 	1.28
scalar Network.dyn_peer[50] 	lookupStabilitySig:mean 	0.66149558275938
scalar Network.dyn_peer[50] 	lookupHopsSig:mean 	12
scalar Network.dyn_peer[51] 	lookupTimeSig:mean 	1
scalar Network.dyn_peer[51] 	lookupStabilitySig:mean 	0.13124999403954
scalar Network.dyn_peer[51] 	lookupHopsSig:mean 	9.5
scalar Network.dyn_peer[52] 	lookupTimeSig:mean 	0.6
scalar Network.dyn_peer[52] 	lookupStabilitySig:mean 	0.23968254029751
scalar Network.dyn_peer[52] 	lookupHopsSig:mean 	5.3333333333333
scalar Network.dyn_peer[53] 	lookupTimeSig:mean 	1.2666666666667
scalar Network.dyn_peer[53] 	lookupStabilitySig:mean 	0.59347825497389
scalar Network.dyn_peer[53] 	lookupHopsSig:mean 	12
scalar Network.dyn_peer[54] 	lookupTimeSig:mean 	1.4
scalar Network.dyn_peer[54] 	lookupStabilitySig:mean 	0.43258375860751
scalar Network.dyn_peer[54] 	lookupHopsSig:mean 	13.25
scalar Network.dyn_peer[55] 	lookupTimeSig:mean 	0.5
scalar Network.dyn_peer[55] 	lookupStabilitySig:mean 	0.26666665822268
scalar Network.dyn_peer[55] 	lookupHopsSig:mean 	4.3333333333333
scalar Network.dyn_peer[56] 	lookupTimeSig:mean 	0.925
scalar Network.dyn_peer[56] 	lookupStabilitySig:mean 	0.36739028431475
scalar Network.dyn_peer[56] 	lookupHopsSig:mean 	8.5
scalar Network.dyn_peer[57] 	lookupTimeSig:mean 	2.8
scalar Network.dyn_peer[57] 	lookupStabilitySig:mean 	0.057065218687057
scalar Network.dyn_peer[57] 	lookupHopsSig:mean 	27.5
scalar Network.dyn_peer[58] 	lookupTimeSig:mean 	1.0142857142857
scalar Network.dyn_peer[58] 	lookupStabilitySig:mean 	0.77700119252716
scalar Network.dyn_peer[58] 	lookupHopsSig:mean 	9.2857142857143
scalar Network.dyn_peer[59] 	lookupTimeSig:mean 	1.0888888888889
scalar Network.dyn_peer[59] 	lookupStabilitySig:mean 	0.72494864381022
scalar Network.dyn_peer[59] 	lookupHopsSig:mean 	10
scalar Network.dyn_peer[60] 	lookupTimeSig:mean 	1.3666666666667
scalar Network.dyn_peer[60] 	lookupStabilitySig:mean 	0.83832457102835
scalar Network.dyn_peer[60] 	lookupHopsSig:mean 	12.833333333333
scalar Network.dyn_peer[61] 	lookupTimeSig:mean 	1.2333333333333
scalar Network.dyn_peer[61] 	lookupStabilitySig:mean 	0.54789722462495
scalar Network.dyn_peer[61] 	lookupHopsSig:mean 	11.666666666667
scalar Network.dyn_peer[62] 	lookupTimeSig:mean 	1.96
scalar Network.dyn_peer[62] 	lookupStabilitySig:mean 	0.53631970137358
scalar Network.dyn_peer[62] 	lookupHopsSig:mean 	18.8
scalar Network.dyn_peer[63] 	lookupTimeSig:mean 	1.0333333333333
scalar Network.dyn_peer[63] 	lookupStabilitySig:mean 	0.8705238887885
scalar Network.dyn_peer[63] 	lookupHopsSig:mean 	9.4
scalar Network.dyn_peer[64] 	lookupTimeSig:mean 	1.02
scalar Network.dyn_peer[64] 	lookupStabilitySig:mean 	0.81537268832326
scalar Network.dyn_peer[64] 	lookupHopsSig:mean 	9.3
scalar Network.dyn_peer[65] 	lookupTimeSig:mean 	0.775
scalar Network.dyn_peer[65] 	lookupStabilitySig:mean 	0.71617197501473
scalar Network.dyn_peer[65] 	lookupHopsSig:mean 	6.875
scalar Network.dyn_peer[66] 	lookupTimeSig:mean 	0.84
scalar Network.dyn_peer[66] 	lookupStabilitySig:mean 	0.66941524371505
scalar Network.dyn_peer[66] 	lookupHopsSig:mean 	7.6
scalar Network.dyn_peer[67] 	lookupTimeSig:mean 	0.75555555555556
scalar Network.dyn_peer[67] 	lookupStabilitySig:mean 	0.73078366389705
scalar Network.dyn_peer[67] 	lookupHopsSig:mean 	6.6666666666667
scalar Network.dyn_peer[68] 	lookupTimeSig:mean 	0.625
scalar Network.dyn_peer[68] 	lookupStabilitySig:mean 	0.48214285075665
scalar Network.dyn_peer[68] 	lookupHopsSig:mean 	5.5
scalar Network.dyn_peer[69] 	lookupTimeSig:mean 	1.85
scalar Network.dyn_peer[69] 	lookupStabilitySig:mean 	0.78558625932783
scalar Network.dyn_peer[69] 	lookupHopsSig:mean 	17.75
scalar Network.dyn_peer[70] 	lookupTimeSig:mean 	0.55
scalar Network.dyn_peer[70] 	lookupStabilitySig:mean 	0.55227272585034
scalar Network.dyn_peer[70] 	lookupHopsSig:mean 	4.75
scalar Network.dyn_peer[71] 	lookupTimeSig:mean 	1.7
scalar Network.dyn_peer[71] 	lookupStabilitySig:mean 	0.77342393435538
scalar Network.dyn_peer[71] 	lookupHopsSig:mean 	16.25
scalar Network.dyn_peer[72] 	lookupTimeSig:mean 	0.73333333333333
scalar Network.dyn_peer[72] 	lookupStabilitySig:mean 	0.30555553237597
scalar Network.dyn_peer[72] 	lookupHopsSig:mean 	6.6666666666667
scalar Network.dyn_peer[73] 	lookupTimeSig:mean 	0.8375
scalar Network.dyn_peer[73] 	lookupStabilitySig:mean 	0.78342195332516
scalar Network.dyn_peer[73] 	lookupHopsSig:mean 	7.5
scalar Network.dyn_peer[74] 	lookupTimeSig:mean 	0.63333333333333
scalar Network.dyn_peer[74] 	lookupStabilitySig:mean 	0.60449557130535
scalar Network.dyn_peer[74] 	lookupHopsSig:mean 	5.5
scalar Network.dyn_peer[75] 	lookupTimeSig:mean 	1.46
scalar Network.dyn_peer[75] 	lookupStabilitySig:mean 	0.70126789696515
scalar Network.dyn_peer[75] 	lookupHopsSig:mean 	13.8
scalar Network.dyn_peer[76] 	lookupTimeSig:mean 	0.7
scalar Network.dyn_peer[76] 	lookupStabilitySig:mean 	0.42881944403052
scalar Network.dyn_peer[76] 	lookupHopsSig:mean 	6.25
scalar Network.dyn_peer[77] 	lookupTimeSig:mean 	1.2
scalar Network.dyn_peer[77] 	lookupStabilitySig:mean 	0.50605772715062
scalar Network.dyn_peer[77] 	lookupHopsSig:mean 	11.25
scalar Network.dyn_peer[78] 	lookupTimeSig:mean 	1.125
scalar Network.dyn_peer[78] 	lookupStabilitySig:mean 	0.43951613456011
scalar Network.dyn_peer[78] 	lookupHopsSig:mean 	10.5
scalar Network.dyn_peer[79] 	lookupTimeSig:mean 	2.15
scalar Network.dyn_peer[79] 	lookupStabilitySig:mean 	0.10153255611658
scalar Network.dyn_peer[79] 	lookupHopsSig:mean 	21
scalar Network.dyn_peer[80] 	lookupTimeSig:mean 	0.86666666666667
scalar Network.dyn_peer[80] 	lookupStabilitySig:mean 	0.32063489904006
scalar Network.dyn_peer[80] 	lookupHopsSig:mean 	8
scalar Network.dyn_peer[81] 	lookupTimeSig:mean 	1.3
scalar Network.dyn_peer[81] 	lookupStabilitySig:mean 	0.75608959102205
scalar Network.dyn_peer[81] 	lookupHopsSig:mean 	12.142857142857
scalar Network.dyn_peer[82] 	lookupTimeSig:mean 	1.1444444444444
scalar Network.dyn_peer[82] 	lookupStabilitySig:mean 	0.83901213409586
scalar Network.dyn_peer[82] 	lookupHopsSig:mean 	10.555555555556
scalar Network.dyn_peer[83] 	lookupTimeSig:mean 	0.75555555555556
scalar Network.dyn_peer[83] 	lookupStabilitySig:mean 	0.78525989849327
scalar Network.dyn_peer[83] 	lookupHopsSig:mean 	6.6666666666667
scalar Network.dyn_peer[84] 	lookupTimeSig:mean 	1.34
scalar Network.dyn_peer[84] 	lookupStabilitySig:mean 	0.89402587730438
scalar Network.dyn_peer[84] 	lookupHopsSig:mean 	12.5
scalar Network.dyn_peer[85] 	lookupTimeSig:mean 	0.825
scalar Network.dyn_peer[85] 	lookupStabilitySig:mean 	0.44157599285245
scalar Network.dyn_peer[85] 	lookupHopsSig:mean 	7.5
scalar Network.dyn_peer[86] 	lookupTimeSig:mean 	0.7
scalar Network.dyn_peer[86] 	lookupStabilitySig:mean 	0.46671625599265
scalar Network.dyn_peer[86] 	lookupHopsSig:mean 	6.25
scalar Network.dyn_peer[87] 	lookupTimeSig:mean 	1.0428571428571
scalar Network.dyn_peer[87] 	lookupStabilitySig:mean 	0.85226656243737
scalar Network.dyn_peer[87] 	lookupHopsSig:mean 	9.5714285714286
scalar Network.dyn_peer[88] 	lookupTimeSig:mean 	0.75
scalar Network.dyn_peer[88] 	lookupStabilitySig:mean 	0.72734826663509
scalar Network.dyn_peer[88] 	lookupHopsSig:mean 	6.625
scalar Network.dyn_peer[89] 	lookupTimeSig:mean 	1.275
scalar Network.dyn_peer[89] 	lookupStabilitySig:mean 	0.57870268449187
scalar Network.dyn_peer[89] 	lookupHopsSig:mean 	12
scalar Network.dyn_peer[90] 	lookupTimeSig:mean 	0.82
scalar Network.dyn_peer[90] 	lookupStabilitySig:mean 	0.57951797544956
scalar Network.dyn_peer[90] 	lookupHopsSig:mean 	7.4
scalar Network.dyn_peer[91] 	lookupTimeSig:mean 	1
scalar Network.dyn_peer[91] 	lookupStabilitySig:mean 	0.7157495399937
scalar Network.dyn_peer[91] 	lookupHopsSig:mean 	9.2
scalar Network.dyn_peer[92] 	lookupTimeSig:mean 	1.375
scalar Network.dyn_peer[92] 	lookupStabilitySig:mean 	0.48472223058343
scalar Network.dyn_peer[92] 	lookupHopsSig:mean 	13
scalar Network.dyn_peer[93] 	lookupTimeSig:mean 	0.86666666666667
scalar Network.dyn_peer[93] 	lookupStabilitySig:mean 	0.41051051517328
scalar Network.dyn_peer[93] 	lookupHopsSig:mean 	8
scalar Network.dyn_peer[94] 	lookupTimeSig:mean 	1.2
scalar Network.dyn_peer[94] 	lookupStabilitySig:mean 	0.32855089008808
scalar Network.dyn_peer[94] 	lookupHopsSig:mean 	11.333333333333
scalar Network.dyn_peer[95] 	lookupTimeSig:mean 	0.87142857142857
scalar Network.dyn_peer[95] 	lookupStabilitySig:mean 	0.72416670221303
scalar Network.dyn_peer[95] 	lookupHopsSig:mean 	7.8571428571429
scalar Network.dyn_peer[96] 	lookupTimeSig:mean 	0.8
scalar Network.dyn_peer[96] 	lookupStabilitySig:mean 	0.52313777431846
scalar Network.dyn_peer[96] 	lookupHopsSig:mean 	7.3333333333333
scalar Network.dyn_peer[97] 	lookupTimeSig:mean 	1.6444444444444
scalar Network.dyn_peer[97] 	lookupStabilitySig:mean 	0.92541298311618
scalar Network.dyn_peer[97] 	lookupHopsSig:mean 	15.555555555556
scalar Network.dyn_peer[98] 	lookupTimeSig:mean 	1.15
scalar Network.dyn_peer[98] 	lookupStabilitySig:mean 	0.90362769248895
scalar Network.dyn_peer[98] 	lookupHopsSig:mean 	10.625
scalar Network.dyn_peer[99] 	lookupTimeSig:mean 	1.1666666666667
scalar Network.dyn_peer[99] 	lookupStabilitySig:mean 	0.3551983560125
scalar Network.dyn_peer[99] 	lookupHopsSig:mean 	11
scalar Network.dyn_peer[100] 	lookupTimeSig:mean 	1.5
scalar Network.dyn_peer[100] 	lookupStabilitySig:mean 	0.68530012667179
scalar Network.dyn_peer[100] 	lookupHopsSig:mean 	14.2
scalar Network.dyn_peer[101] 	lookupTimeSig:mean 	1.1875
scalar Network.dyn_peer[101] 	lookupStabilitySig:mean 	0.90310223249253
scalar Network.dyn_peer[101] 	lookupHopsSig:mean 	11
scalar Network.dyn_peer[102] 	lookupTimeSig:mean 	1.0846153846154
scalar Network.dyn_peer[102] 	lookupStabilitySig:mean 	0.85082055427707
scalar Network.dyn_peer[102] 	lookupHopsSig:mean 	9.9230769230769
scalar Network.dyn_peer[103] 	lookupTimeSig:mean 	1.38
scalar Network.dyn_peer[103] 	lookupStabilitySig:mean 	0.71443658918142
scalar Network.dyn_peer[103] 	lookupHopsSig:mean 	13
scalar Network.dyn_peer[104] 	lookupTimeSig:mean 	0.86666666666667
scalar Network.dyn_peer[104] 	lookupStabilitySig:mean 	0.39487177630266
scalar Network.dyn_peer[104] 	lookupHopsSig:mean 	8
scalar Network.dyn_peer[105] 	lookupTimeSig:mean 	1.0166666666667
scalar Network.dyn_peer[105] 	lookupStabilitySig:mean 	0.75486149499193
scalar Network.dyn_peer[105] 	lookupHopsSig:mean 	9.3333333333333
scalar Network.dyn_peer[106] 	lookupTimeSig:mean 	1.35
scalar Network.dyn_peer[106] 	lookupStabilitySig:mean 	0.6088279793039
scalar Network.dyn_peer[106] 	lookupHopsSig:mean 	12.75
scalar Network.dyn_peer[107] 	lookupTimeSig:mean 	0.775
scalar Network.dyn_peer[107] 	lookupStabilitySig:mean 	0.4674863293767
scalar Network.dyn_peer[107] 	lookupHopsSig:mean 	7
scalar Network.dyn_peer[108] 	lookupTimeSig:mean 	1.6714285714286
scalar Network.dyn_peer[108] 	lookupStabilitySig:mean 	0.90705092011818
scalar Network.dyn_peer[108] 	lookupHopsSig:mean 	15.857142857143
scalar Network.dyn_peer[109] 	lookupTimeSig:mean 	0.43333333333333
scalar Network.dyn_peer[109] 	lookupStabilitySig:mean 	0.39166666567326
scalar Network.dyn_peer[109] 	lookupHopsSig:mean 	3.6666666666667
scalar Network.dyn_peer[110] 	lookupTimeSig:mean 	1.85
scalar Network.dyn_peer[110] 	lookupStabilitySig:mean 	0.70084154605865
scalar Network.dyn_peer[110] 	lookupHopsSig:mean 	18
scalar Network.dyn_peer[111] 	lookupTimeSig:mean 	1.3
scalar Network.dyn_peer[111] 	lookupStabilitySig:mean 	0.64498597383499
scalar Network.dyn_peer[111] 	lookupHopsSig:mean 	12.333333333333
scalar Network.dyn_peer[112] 	lookupTimeSig:mean 	1.2
scalar Network.dyn_peer[112] 	lookupStabilitySig:mean 	0.55289335288107
scalar Network.dyn_peer[112] 	lookupHopsSig:mean 	11.2
scalar Network.dyn_peer[113] 	lookupTimeSig:mean 	1.1285714285714
scalar Network.dyn_peer[113] 	lookupStabilitySig:mean 	0.68933861463198
scalar Network.dyn_peer[113] 	lookupHopsSig:mean 	10.428571428571
scalar Network.dyn_peer[114] 	lookupTimeSig:mean 	0.74
scalar Network.dyn_peer[114] 	lookupStabilitySig:mean 	0.53014628887177
scalar Network.dyn_peer[114] 	lookupHopsSig:mean 	6.6
scalar Network.dyn_peer[115] 	lookupTimeSig:mean 	1.1571428571429
scalar Network.dyn_peer[115] 	lookupStabilitySig:mean 	0.892660307831
scalar Network.dyn_peer[115] 	lookupHopsSig:mean 	10.714285714286
scalar Network.dyn_peer[116] 	lookupTimeSig:mean 	0.8
scalar Network.dyn_peer[116] 	lookupStabilitySig:mean 	0.56462911469862
scalar Network.dyn_peer[116] 	lookupHopsSig:mean 	7.25
scalar Network.dyn_peer[117] 	lookupTimeSig:mean 	0.93333333333333
scalar Network.dyn_peer[117] 	lookupStabilitySig:mean 	0.20784311989943
scalar Network.dyn_peer[117] 	lookupHopsSig:mean 	8.6666666666667
scalar Network.dyn_peer[118] 	lookupTimeSig:mean 	1.18
scalar Network.dyn_peer[118] 	lookupStabilitySig:mean 	0.59728499948978
scalar Network.dyn_peer[118] 	lookupHopsSig:mean 	11
scalar Network.dyn_peer[119] 	lookupTimeSig:mean 	0.8125
scalar Network.dyn_peer[119] 	lookupStabilitySig:mean 	0.73768501635641
scalar Network.dyn_peer[119] 	lookupHopsSig:mean 	7.25
scalar Network.dyn_peer[120] 	lookupTimeSig:mean 	0.83333333333333
scalar Network.dyn_peer[120] 	lookupStabilitySig:mean 	0.28207280238469
scalar Network.dyn_peer[120] 	lookupHopsSig:mean 	7.6666666666667
scalar Network.dyn_peer[121] 	lookupTimeSig:mean 	0.81666666666667
scalar Network.dyn_peer[121] 	lookupStabilitySig:mean 	0.70022553764284
scalar Network.dyn_peer[121] 	lookupHopsSig:mean 	7.3333333333333
scalar Network.dyn_peer[122] 	lookupTimeSig:mean 	1.5333333333333
scalar Network.dyn_peer[122] 	lookupStabilitySig:mean 	0.47461133201917
scalar Network.dyn_peer[122] 	lookupHopsSig:mean 	14.666666666667
scalar Network.dyn_peer[123] 	lookupTimeSig:mean 	0.8
scalar Network.dyn_peer[123] 	lookupStabilitySig:mean 	0.79644190054387
scalar Network.dyn_peer[123] 	lookupHopsSig:mean 	7.1666666666667
scalar Network.dyn_peer[124] 	lookupTimeSig:mean 	0.97142857142857
scalar Network.dyn_peer[124] 	lookupStabilitySig:mean 	0.72086983945753
scalar Network.dyn_peer[124] 	lookupHopsSig:mean 	8.8571428571429
scalar Network.dyn_peer[125] 	lookupTimeSig:mean 	0.85714285714286
scalar Network.dyn_peer[125] 	lookupStabilitySig:mean 	0.68918969056436
scalar Network.dyn_peer[125] 	lookupHopsSig:mean 	7.7142857142857
scalar Network.dyn_peer[126] 	lookupTimeSig:mean 	1.9
scalar Network.dyn_peer[126] 	lookupStabilitySig:mean 	0.56919505447149
scalar Network.dyn_peer[126] 	lookupHopsSig:mean 	18.5
scalar Network.dyn_peer[127] 	lookupTimeSig:mean 	1.14
scalar Network.dyn_peer[127] 	lookupStabilitySig:mean 	0.77871903171763
scalar Network.dyn_peer[127] 	lookupHopsSig:mean 	10.5
scalar Network.dyn_peer[128] 	lookupTimeSig:mean 	1.3833333333333
scalar Network.dyn_peer[128] 	lookupStabilitySig:mean 	0.70301538954178
scalar Network.dyn_peer[128] 	lookupHopsSig:mean 	13
scalar Network.dyn_peer[129] 	lookupTimeSig:mean 	1.2285714285714
scalar Network.dyn_peer[129] 	lookupStabilitySig:mean 	0.88901592059327
scalar Network.dyn_peer[129] 	lookupHopsSig:mean 	11.428571428571
scalar Network.dyn_peer[130] 	lookupTimeSig:mean 	1.475
scalar Network.dyn_peer[130] 	lookupStabilitySig:mean 	0.56076886877418
scalar Network.dyn_peer[130] 	lookupHopsSig:mean 	14
scalar Network.dyn_peer[131] 	lookupTimeSig:mean 	0.91666666666667
scalar Network.dyn_peer[131] 	lookupStabilitySig:mean 	0.65152026216189
scalar Network.dyn_peer[131] 	lookupHopsSig:mean 	8.3333333333333
scalar Network.dyn_peer[132] 	lookupTimeSig:mean 	0.77
scalar Network.dyn_peer[132] 	lookupStabilitySig:mean 	0.89453534083441
scalar Network.dyn_peer[132] 	lookupHopsSig:mean 	6.8
scalar Network.dyn_peer[133] 	lookupTimeSig:mean 	1.3666666666667
scalar Network.dyn_peer[133] 	lookupStabilitySig:mean 	0.31547617415587
scalar Network.dyn_peer[133] 	lookupHopsSig:mean 	13
scalar Network.dyn_peer[134] 	lookupTimeSig:mean 	1.8
scalar Network.dyn_peer[134] 	lookupStabilitySig:mean 	0.52307956169049
scalar Network.dyn_peer[134] 	lookupHopsSig:mean 	17.333333333333
scalar Network.dyn_peer[135] 	lookupTimeSig:mean 	0.925
scalar Network.dyn_peer[135] 	lookupStabilitySig:mean 	0.45809621736407
scalar Network.dyn_peer[135] 	lookupHopsSig:mean 	8.5
scalar Network.dyn_peer[136] 	lookupTimeSig:mean 	1.0571428571429
scalar Network.dyn_peer[136] 	lookupStabilitySig:mean 	0.81536954641342
scalar Network.dyn_peer[136] 	lookupHopsSig:mean 	9.7142857142857
scalar Network.dyn_peer[137] 	lookupTimeSig:mean 	1.35
scalar Network.dyn_peer[137] 	lookupStabilitySig:mean 	0.49345363676548
scalar Network.dyn_peer[137] 	lookupHopsSig:mean 	12.75
scalar Network.dyn_peer[138] 	lookupTimeSig:mean 	1.08
scalar Network.dyn_peer[138] 	lookupStabilitySig:mean 	0.56759817823768
scalar Network.dyn_peer[138] 	lookupHopsSig:mean 	10
scalar Network.dyn_peer[139] 	lookupTimeSig:mean 	1.125
scalar Network.dyn_peer[139] 	lookupStabilitySig:mean 	0.76065854169428
scalar Network.dyn_peer[139] 	lookupHopsSig:mean 	10.5
scalar Network.dyn_peer[140] 	lookupTimeSig:mean 	1.1
scalar Network.dyn_peer[140] 	lookupStabilitySig:mean 	0.0059524029493332
scalar Network.dyn_peer[140] 	lookupHopsSig:mean 	10.5
scalar Network.dyn_peer[141] 	lookupTimeSig:mean 	1.52
scalar Network.dyn_peer[141] 	lookupStabilitySig:mean 	0.854770065099
scalar Network.dyn_peer[141] 	lookupHopsSig:mean 	14.4
scalar Network.dyn_peer[142] 	lookupTimeSig:mean 	0.825
scalar Network.dyn_peer[142] 	lookupStabilitySig:mean 	0.68940885690972
scalar Network.dyn_peer[142] 	lookupHopsSig:mean 	7.5
scalar Network.dyn_peer[143] 	lookupTimeSig:mean 	0.9625
scalar Network.dyn_peer[143] 	lookupStabilitySig:mean 	0.86286600236781
scalar Network.dyn_peer[143] 	lookupHopsSig:mean 	8.6875
scalar Network.dyn_peer[144] 	lookupTimeSig:mean 	1.0333333333333
scalar Network.dyn_peer[144] 	lookupStabilitySig:mean 	0.85174229517967
scalar Network.dyn_peer[144] 	lookupHopsSig:mean 	9.4166666666667
scalar Network.dyn_peer[145] 	lookupTimeSig:mean 	0.7
scalar Network.dyn_peer[145] 	lookupStabilitySig:mean 	0.51083802804351
scalar Network.dyn_peer[145] 	lookupHopsSig:mean 	6.25
scalar Network.dyn_peer[146] 	lookupTimeSig:mean 	1.1
scalar Network.dyn_peer[146] 	lookupStabilitySig:mean 	0.76445839766945
scalar Network.dyn_peer[146] 	lookupHopsSig:mean 	10.142857142857
scalar Network.dyn_peer[147] 	lookupTimeSig:mean 	1.12
scalar Network.dyn_peer[147] 	lookupStabilitySig:mean 	0.79958703219891
scalar Network.dyn_peer[147] 	lookupHopsSig:mean 	10.4
scalar Network.dyn_peer[148] 	lookupTimeSig:mean 	0.94285714285714
scalar Network.dyn_peer[148] 	lookupStabilitySig:mean 	0.76857767094459
scalar Network.dyn_peer[148] 	lookupHopsSig:mean 	8.5714285714286
scalar Network.dyn_peer[149] 	lookupTimeSig:mean 	1.1
scalar Network.dyn_peer[149] 	lookupStabilitySig:mean 	0.54855694621801
scalar Network.dyn_peer[149] 	lookupHopsSig:mean 	10.2
scalar Network.dyn_peer[150] 	lookupTimeSig:mean 	0.97272727272727
scalar Network.dyn_peer[150] 	lookupStabilitySig:mean 	0.89620694060895
scalar Network.dyn_peer[150] 	lookupHopsSig:mean 	8.8181818181818
scalar Network.dyn_peer[151] 	lookupTimeSig:mean 	1.1
scalar Network.dyn_peer[151] 	lookupStabilitySig:mean 	0.7305584512651
scalar Network.dyn_peer[151] 	lookupHopsSig:mean 	10.166666666667
scalar Network.dyn_peer[152] 	lookupTimeSig:mean 	1.075
scalar Network.dyn_peer[152] 	lookupStabilitySig:mean 	0.61392145045102
scalar Network.dyn_peer[152] 	lookupHopsSig:mean 	10
scalar Network.dyn_peer[153] 	lookupTimeSig:mean 	1.5
scalar Network.dyn_peer[153] 	lookupStabilitySig:mean 	0.57622360065579
scalar Network.dyn_peer[153] 	lookupHopsSig:mean 	14.25
scalar Network.dyn_peer[154] 	lookupTimeSig:mean 	0.85
scalar Network.dyn_peer[154] 	lookupStabilitySig:mean 	0.438571408391
scalar Network.dyn_peer[154] 	lookupHopsSig:mean 	7.75
scalar Network.dyn_peer[155] 	lookupTimeSig:mean 	0.96666666666667
scalar Network.dyn_peer[155] 	lookupStabilitySig:mean 	0.52499998236696
scalar Network.dyn_peer[155] 	lookupHopsSig:mean 	9
scalar Network.dyn_peer[156] 	lookupTimeSig:mean 	1.3666666666667
scalar Network.dyn_peer[156] 	lookupStabilitySig:mean 	0.92067466825635
scalar Network.dyn_peer[156] 	lookupHopsSig:mean 	12.75
scalar Network.dyn_peer[157] 	lookupTimeSig:mean 	1.25
scalar Network.dyn_peer[157] 	lookupStabilitySig:mean 	0.51030557975173
scalar Network.dyn_peer[157] 	lookupHopsSig:mean 	11.75
scalar Network.dyn_peer[158] 	lookupTimeSig:mean 	1.1
scalar Network.dyn_peer[158] 	lookupStabilitySig:mean 	0.5730738684535
scalar Network.dyn_peer[158] 	lookupHopsSig:mean 	10.2
scalar Network.dyn_peer[159] 	lookupTimeSig:mean 	0.675
scalar Network.dyn_peer[159] 	lookupStabilitySig:mean 	0.536835744977
scalar Network.dyn_peer[159] 	lookupHopsSig:mean 	6
scalar Network.dyn_peer[160] 	lookupTimeSig:mean 	1.475
scalar Network.dyn_peer[160] 	lookupStabilitySig:mean 	0.85462038172409
scalar Network.dyn_peer[160] 	lookupHopsSig:mean 	14
scalar Network.dyn_peer[161] 	lookupTimeSig:mean 	1.6
scalar Network.dyn_peer[161] 	lookupStabilitySig:mean 	0.67611939460039
scalar Network.dyn_peer[161] 	lookupHopsSig:mean 	15.5
scalar Network.dyn_peer[162] 	lookupTimeSig:mean 	0.82
scalar Network.dyn_peer[162] 	lookupStabilitySig:mean 	0.66229997053742
scalar Network.dyn_peer[162] 	lookupHopsSig:mean 	7.4
scalar Network.dyn_peer[163] 	lookupTimeSig:mean 	1.2533333333333
scalar Network.dyn_peer[163] 	lookupStabilitySig:mean 	0.89654924708108
scalar Network.dyn_peer[163] 	lookupHopsSig:mean 	11.6
scalar Network.dyn_peer[164] 	lookupTimeSig:mean 	1.45
scalar Network.dyn_peer[164] 	lookupStabilitySig:mean 	0.88743817526847
scalar Network.dyn_peer[164] 	lookupHopsSig:mean 	13.666666666667
scalar Network.dyn_peer[165] 	lookupTimeSig:mean 	1.27
scalar Network.dyn_peer[165] 	lookupStabilitySig:mean 	0.87730028391816
scalar Network.dyn_peer[165] 	lookupHopsSig:mean 	11.8
scalar Network.dyn_peer[166] 	lookupTimeSig:mean 	1.0666666666667
scalar Network.dyn_peer[166] 	lookupStabilitySig:mean 	0.82834032705675
scalar Network.dyn_peer[166] 	lookupHopsSig:mean 	9.8333333333333
scalar Network.dyn_peer[167] 	lookupTimeSig:mean 	1.0833333333333
scalar Network.dyn_peer[167] 	lookupStabilitySig:mean 	0.72264760034159
scalar Network.dyn_peer[167] 	lookupHopsSig:mean 	10
scalar Network.dyn_peer[168] 	lookupTimeSig:mean 	0.86153846153846
scalar Network.dyn_peer[168] 	lookupStabilitySig:mean 	0.84998121940029
scalar Network.dyn_peer[168] 	lookupHopsSig:mean 	7.6923076923077
scalar Network.dyn_peer[169] 	lookupTimeSig:mean 	1.3
scalar Network.dyn_peer[169] 	lookupStabilitySig:mean 	0.63774854689837
scalar Network.dyn_peer[169] 	lookupHopsSig:mean 	12.25
scalar Network.dyn_peer[170] 	lookupTimeSig:mean 	1.2
scalar Network.dyn_peer[170] 	lookupStabilitySig:mean 	0.57082573994994
scalar Network.dyn_peer[170] 	lookupHopsSig:mean 	11.2
scalar Network.dyn_peer[171] 	lookupTimeSig:mean 	1
scalar Network.dyn_peer[171] 	lookupStabilitySig:mean 	0.61815934814513
scalar Network.dyn_peer[171] 	lookupHopsSig:mean 	9.25
scalar Network.dyn_peer[172] 	lookupTimeSig:mean 	1.08
scalar Network.dyn_peer[172] 	lookupStabilitySig:mean 	0.6531537771225
scalar Network.dyn_peer[172] 	lookupHopsSig:mean 	10
scalar Network.dyn_peer[173] 	lookupTimeSig:mean 	1.05
scalar Network.dyn_peer[173] 	lookupStabilitySig:mean 	0.52799145784229
scalar Network.dyn_peer[173] 	lookupHopsSig:mean 	9.75
scalar Network.dyn_peer[174] 	lookupTimeSig:mean 	0.93333333333333
scalar Network.dyn_peer[174] 	lookupStabilitySig:mean 	0.67129292121778
scalar Network.dyn_peer[174] 	lookupHopsSig:mean 	8.5
scalar Network.dyn_peer[175] 	lookupTimeSig:mean 	0.9
scalar Network.dyn_peer[175] 	lookupStabilitySig:mean 	0.85778924695809
scalar Network.dyn_peer[175] 	lookupHopsSig:mean 	8.0909090909091
scalar Network.dyn_peer[176] 	lookupTimeSig:mean 	0.84285714285714
scalar Network.dyn_peer[176] 	lookupStabilitySig:mean 	0.68014251600419
scalar Network.dyn_peer[176] 	lookupHopsSig:mean 	7.5714285714286
scalar Network.dyn_peer[177] 	lookupTimeSig:mean 	1.33
scalar Network.dyn_peer[177] 	lookupStabilitySig:mean 	0.92191941644996
scalar Network.dyn_peer[177] 	lookupHopsSig:mean 	12.4
scalar Network.dyn_peer[178] 	lookupTimeSig:mean 	1.9
scalar Network.dyn_peer[178] 	lookupStabilitySig:mean 	0.80981993023306
scalar Network.dyn_peer[178] 	lookupHopsSig:mean 	18.25
scalar Network.dyn_peer[179] 	lookupTimeSig:mean 	1.0375
scalar Network.dyn_peer[179] 	lookupStabilitySig:mean 	0.92901153117418
scalar Network.dyn_peer[179] 	lookupHopsSig:mean 	9.5
scalar Network.dyn_peer[180] 	lookupTimeSig:mean 	0.82857142857143
scalar Network.dyn_peer[180] 	lookupStabilitySig:mean 	0.69664988999388
scalar Network.dyn_peer[180] 	lookupHopsSig:mean 	7.4285714285714
scalar Network.dyn_peer[181] 	lookupTimeSig:mean 	1.2714285714286
scalar Network.dyn_peer[181] 	lookupStabilitySig:mean 	0.84657391001071
scalar Network.dyn_peer[181] 	lookupHopsSig:mean 	11.857142857143
scalar Network.dyn_peer[182] 	lookupTimeSig:mean 	1.1
scalar Network.dyn_peer[182] 	lookupStabilitySig:mean 	0.91971372502546
scalar Network.dyn_peer[182] 	lookupHopsSig:mean 	10.111111111111
scalar Network.dyn_peer[183] 	lookupTimeSig:mean 	0.65
scalar Network.dyn_peer[183] 	lookupStabilitySig:mean 	0.4897794444114
scalar Network.dyn_peer[183] 	lookupHopsSig:mean 	5.75
scalar Network.dyn_peer[184] 	lookupTimeSig:mean 	1.0857142857143
scalar Network.dyn_peer[184] 	lookupStabilitySig:mean 	0.83500939361485
scalar Network.dyn_peer[184] 	lookupHopsSig:mean 	10
scalar Network.dyn_peer[185] 	lookupTimeSig:mean 	1.12
scalar Network.dyn_peer[185] 	lookupStabilitySig:mean 	0.93776138890535
scalar Network.dyn_peer[185] 	lookupHopsSig:mean 	10.3
scalar Network.dyn_peer[186] 	lookupTimeSig:mean 	0.93333333333333
scalar Network.dyn_peer[186] 	lookupStabilitySig:mean 	0.26481482883294
scalar Network.dyn_peer[186] 	lookupHopsSig:mean 	8.6666666666667
scalar Network.dyn_peer[187] 	lookupTimeSig:mean 	1.2428571428571
scalar Network.dyn_peer[187] 	lookupStabilitySig:mean 	0.87297969697309
scalar Network.dyn_peer[187] 	lookupHopsSig:mean 	11.571428571429
scalar Network.dyn_peer[188] 	lookupTimeSig:mean 	1.2
scalar Network.dyn_peer[188] 	lookupStabilitySig:mean 	0.4659700319171
scalar Network.dyn_peer[188] 	lookupHopsSig:mean 	11.25
scalar Network.dyn_peer[189] 	lookupTimeSig:mean 	0.95
scalar Network.dyn_peer[189] 	lookupStabilitySig:mean 	0.81725200684741
scalar Network.dyn_peer[189] 	lookupHopsSig:mean 	8.6666666666667
scalar Network.dyn_peer[190] 	lookupTimeSig:mean 	0.91666666666667
scalar Network.dyn_peer[190] 	lookupStabilitySig:mean 	0.66576977260411
scalar Network.dyn_peer[190] 	lookupHopsSig:mean 	8.3333333333333
scalar Network.dyn_peer[191] 	lookupTimeSig:mean 	0.82222222222222
scalar Network.dyn_peer[191] 	lookupStabilitySig:mean 	0.76178620403839
scalar Network.dyn_peer[191] 	lookupHopsSig:mean 	7.3333333333333
scalar Network.dyn_peer[192] 	lookupTimeSig:mean 	0.85
scalar Network.dyn_peer[192] 	lookupStabilitySig:mean 	0.8917038901709
scalar Network.dyn_peer[192] 	lookupHopsSig:mean 	7.625
scalar Network.dyn_peer[193] 	lookupTimeSig:mean 	0.88888888888889
scalar Network.dyn_peer[193] 	lookupStabilitySig:mean 	0.77495524121655
scalar Network.dyn_peer[193] 	lookupHopsSig:mean 	8
scalar Network.dyn_peer[194] 	lookupTimeSig:mean 	0.78888888888889
scalar Network.dyn_peer[194] 	lookupStabilitySig:mean 	0.81219048616994
scalar Network.dyn_peer[194] 	lookupHopsSig:mean 	7
scalar Network.dyn_peer[195] 	lookupTimeSig:mean 	0.725
scalar Network.dyn_peer[195] 	lookupStabilitySig:mean 	0.51194392517209
scalar Network.dyn_peer[195] 	lookupHopsSig:mean 	6.5
scalar Network.dyn_peer[196] 	lookupTimeSig:mean 	0.7
scalar Network.dyn_peer[196] 	lookupStabilitySig:mean 	0.61065865829587
scalar Network.dyn_peer[196] 	lookupHopsSig:mean 	6.2
scalar Network.dyn_peer[197] 	lookupTimeSig:mean 	1.1333333333333
scalar Network.dyn_peer[197] 	lookupStabilitySig:mean 	0.43776837488015
scalar Network.dyn_peer[197] 	lookupHopsSig:mean 	10.666666666667
scalar Network.dyn_peer[198] 	lookupTimeSig:mean 	0.71666666666667
scalar Network.dyn_peer[198] 	lookupStabilitySig:mean 	0.69111439461509
scalar Network.dyn_peer[198] 	lookupHopsSig:mean 	6.3333333333333
scalar Network.dyn_peer[199] 	lookupTimeSig:mean 	0.83333333333333
scalar Network.dyn_peer[199] 	lookupStabilitySig:mean 	0.7225260057797
scalar Network.dyn_peer[199] 	lookupHopsSig:mean 	7.5
scalar Network.dyn_peer[200] 	lookupTimeSig:mean 	1.3857142857143
scalar Network.dyn_peer[200] 	lookupStabilitySig:mean 	0.82920874495591
scalar Network.dyn_peer[200] 	lookupHopsSig:mean 	13
scalar Network.dyn_peer[201] 	lookupTimeSig:mean 	0.8
scalar Network.dyn_peer[201] 	lookupStabilitySig:mean 	0.53055024705827
scalar Network.dyn_peer[201] 	lookupHopsSig:mean 	7.25
scalar Network.dyn_peer[202] 	lookupTimeSig:mean 	0.82727272727273
scalar Network.dyn_peer[202] 	lookupStabilitySig:mean 	0.84166432265192
scalar Network.dyn_peer[202] 	lookupHopsSig:mean 	7.3636363636364
scalar Network.dyn_peer[203] 	lookupTimeSig:mean 	1.475
scalar Network.dyn_peer[203] 	lookupStabilitySig:mean 	0.78833290934563
scalar Network.dyn_peer[203] 	lookupHopsSig:mean 	14
scalar Network.dyn_peer[204] 	lookupTimeSig:mean 	1.4
scalar Network.dyn_peer[204] 	lookupStabilitySig:mean 	0.65603676810861
scalar Network.dyn_peer[204] 	lookupHopsSig:mean 	13.333333333333
scalar Network.dyn_peer[205] 	lookupTimeSig:mean 	1.1888888888889
scalar Network.dyn_peer[205] 	lookupStabilitySig:mean 	0.91511886370265
scalar Network.dyn_peer[205] 	lookupHopsSig:mean 	11
scalar Network.dyn_peer[206] 	lookupTimeSig:mean 	1.1333333333333
scalar Network.dyn_peer[206] 	lookupStabilitySig:mean 	0.35042734692494
scalar Network.dyn_peer[206] 	lookupHopsSig:mean 	10.666666666667
scalar Network.dyn_peer[207] 	lookupTimeSig:mean 	1.1
scalar Network.dyn_peer[207] 	lookupStabilitySig:mean 	0.66612698789686
scalar Network.dyn_peer[207] 	lookupHopsSig:mean 	10.25
scalar Network.dyn_peer[208] 	lookupTimeSig:mean 	1.75
scalar Network.dyn_peer[208] 	lookupStabilitySig:mean 	0.11419753730297
scalar Network.dyn_peer[208] 	lookupHopsSig:mean 	17
scalar Network.dyn_peer[209] 	lookupTimeSig:mean 	2.55
scalar Network.dyn_peer[209] 	lookupStabilitySig:mean 	0.62291281670332
scalar Network.dyn_peer[209] 	lookupHopsSig:mean 	25
scalar Network.dyn_peer[210] 	lookupTimeSig:mean 	1.125
scalar Network.dyn_peer[210] 	lookupStabilitySig:mean 	0.47368637658656
scalar Network.dyn_peer[210] 	lookupHopsSig:mean 	10.5
scalar Network.dyn_peer[211] 	lookupTimeSig:mean 	1.1333333333333
scalar Network.dyn_peer[211] 	lookupStabilitySig:mean 	0.69130992765228
scalar Network.dyn_peer[211] 	lookupHopsSig:mean 	10.5
scalar Network.dyn_peer[212] 	lookupTimeSig:mean 	1.7
scalar Network.dyn_peer[212] 	lookupStabilitySig:mean 	0.6973194219172
scalar Network.dyn_peer[212] 	lookupHopsSig:mean 	16.5
scalar Network.dyn_peer[213] 	lookupTimeSig:mean 	0.95
scalar Network.dyn_peer[213] 	lookupStabilitySig:mean 	0.73174622592827
scalar Network.dyn_peer[213] 	lookupHopsSig:mean 	8.6666666666667
scalar Network.dyn_peer[214] 	lookupTimeSig:mean 	1.2833333333333
scalar Network.dyn_peer[214] 	lookupStabilitySig:mean 	0.61610696619997
scalar Network.dyn_peer[214] 	lookupHopsSig:mean 	12
scalar Network.dyn_peer[215] 	lookupTimeSig:mean 	1.3571428571429
scalar Network.dyn_peer[215] 	lookupStabilitySig:mean 	0.75161798032267
scalar Network.dyn_peer[215] 	lookupHopsSig:mean 	12.714285714286
scalar Network.dyn_peer[216] 	lookupTimeSig:mean 	1.28
scalar Network.dyn_peer[216] 	lookupStabilitySig:mean 	0.92588291270658
scalar Network.dyn_peer[216] 	lookupHopsSig:mean 	11.9
scalar Network.dyn_peer[217] 	lookupTimeSig:mean 	1.7
scalar Network.dyn_peer[217] 	lookupStabilitySig:mean 	0.89253554716706
scalar Network.dyn_peer[217] 	lookupHopsSig:mean 	16.2
scalar Network.dyn_peer[218] 	lookupTimeSig:mean 	0.87272727272727
scalar Network.dyn_peer[218] 	lookupStabilitySig:mean 	0.8982223091139
scalar Network.dyn_peer[218] 	lookupHopsSig:mean 	7.8181818181818
scalar Network.dyn_peer[219] 	lookupTimeSig:mean 	1.15
scalar Network.dyn_peer[219] 	lookupStabilitySig:mean 	0.085714265704155
scalar Network.dyn_peer[219] 	lookupHopsSig:mean 	11
scalar Network.dyn_peer[220] 	lookupTimeSig:mean 	1.1
scalar Network.dyn_peer[220] 	lookupStabilitySig:mean 	0.40046948691209
scalar Network.dyn_peer[220] 	lookupHopsSig:mean 	10.333333333333
scalar Network.dyn_peer[221] 	lookupTimeSig:mean 	0.92857142857143
scalar Network.dyn_peer[221] 	lookupStabilitySig:mean 	0.72227657772601
scalar Network.dyn_peer[221] 	lookupHopsSig:mean 	8.4285714285714
scalar Network.dyn_peer[222] 	lookupTimeSig:mean 	0.975
scalar Network.dyn_peer[222] 	lookupStabilitySig:mean 	0.62286279629916
scalar Network.dyn_peer[222] 	lookupHopsSig:mean 	9
scalar Network.dyn_peer[223] 	lookupTimeSig:mean 	0.94444444444444
scalar Network.dyn_peer[223] 	lookupStabilitySig:mean 	0.8616717425175
scalar Network.dyn_peer[223] 	lookupHopsSig:mean 	8.5555555555556
scalar Network.dyn_peer[224] 	lookupTimeSig:mean 	0.775
scalar Network.dyn_peer[224] 	lookupStabilitySig:mean 	0.72032381314784
scalar Network.dyn_peer[224] 	lookupHopsSig:mean 	6.875
scalar Network.dyn_peer[225] 	lookupTimeSig:mean 	1.85
scalar Network.dyn_peer[225] 	lookupStabilitySig:mean 	0.70744680985808
scalar Network.dyn_peer[225] 	lookupHopsSig:mean 	18
scalar Network.dyn_peer[226] 	lookupTimeSig:mean 	0.975
scalar Network.dyn_peer[226] 	lookupStabilitySig:mean 	0.56070271134377
scalar Network.dyn_peer[226] 	lookupHopsSig:mean 	9
scalar Network.dyn_peer[227] 	lookupTimeSig:mean 	1.3
scalar Network.dyn_peer[227] 	lookupStabilitySig:mean 	0.36136363446712
scalar Network.dyn_peer[227] 	lookupHopsSig:mean 	12.5
scalar Network.dyn_peer[228] 	lookupTimeSig:mean 	1.2333333333333
scalar Network.dyn_peer[228] 	lookupStabilitySig:mean 	0.84346461296082
scalar Network.dyn_peer[228] 	lookupHopsSig:mean 	11.666666666667
scalar Network.dyn_peer[229] 	lookupTimeSig:mean 	1.0636363636364
scalar Network.dyn_peer[229] 	lookupStabilitySig:mean 	0.85829535240985
scalar Network.dyn_peer[229] 	lookupHopsSig:mean 	9.7272727272727
scalar Network.dyn_peer[230] 	lookupTimeSig:mean 	1.9
scalar Network.dyn_peer[230] 	lookupStabilitySig:mean 	0.55903225392103
scalar Network.dyn_peer[230] 	lookupHopsSig:mean 	18.5
scalar Network.dyn_peer[231] 	lookupTimeSig:mean 	0.98
scalar Network.dyn_peer[231] 	lookupStabilitySig:mean 	0.64800692647696
scalar Network.dyn_peer[231] 	lookupHopsSig:mean 	9
scalar Network.dyn_peer[232] 	lookupTimeSig:mean 	0.8
scalar Network.dyn_peer[232] 	lookupStabilitySig:mean 	0.81264970850732
scalar Network.dyn_peer[232] 	lookupHopsSig:mean 	7.1428571428571
scalar Network.dyn_peer[233] 	lookupTimeSig:mean 	0.82
scalar Network.dyn_peer[233] 	lookupStabilitySig:mean 	0.61137253399938
scalar Network.dyn_peer[233] 	lookupHopsSig:mean 	7.4
scalar Network.dyn_peer[234] 	lookupTimeSig:mean 	1.1833333333333
scalar Network.dyn_peer[234] 	lookupStabilitySig:mean 	0.82591033975283
scalar Network.dyn_peer[234] 	lookupHopsSig:mean 	11
scalar Network.dyn_peer[235] 	lookupTimeSig:mean 	0.5
scalar Network.dyn_peer[235] 	lookupStabilitySig:mean 	0.65123050510883
scalar Network.dyn_peer[235] 	lookupHopsSig:mean 	4.2
scalar Network.dyn_peer[236] 	lookupTimeSig:mean 	0.95
scalar Network.dyn_peer[236] 	lookupStabilitySig:mean 	0.79555183608318
scalar Network.dyn_peer[236] 	lookupHopsSig:mean 	8.625
scalar Network.dyn_peer[237] 	lookupTimeSig:mean 	1.9
scalar Network.dyn_peer[237] 	lookupStabilitySig:mean 	0.77125401174029
scalar Network.dyn_peer[237] 	lookupHopsSig:mean 	18.333333333333
scalar Network.dyn_peer[238] 	lookupTimeSig:mean 	0.925
scalar Network.dyn_peer[238] 	lookupStabilitySig:mean 	0.63979811221361
scalar Network.dyn_peer[238] 	lookupHopsSig:mean 	8.5
scalar Network.dyn_peer[239] 	lookupTimeSig:mean 	1.0428571428571
scalar Network.dyn_peer[239] 	lookupStabilitySig:mean 	0.8808746113708
scalar Network.dyn_peer[239] 	lookupHopsSig:mean 	9.5714285714286
scalar Network.dyn_peer[240] 	lookupTimeSig:mean 	2.4
scalar Network.dyn_peer[240] 	lookupStabilitySig:mean 	0.78889411439498
scalar Network.dyn_peer[240] 	lookupHopsSig:mean 	23.333333333333
scalar Network.dyn_peer[241] 	lookupTimeSig:mean 	1.65
scalar Network.dyn_peer[241] 	lookupStabilitySig:mean 	0.60308879241347
scalar Network.dyn_peer[241] 	lookupHopsSig:mean 	16
scalar Network.dyn_peer[242] 	lookupTimeSig:mean 	0.85555555555556
scalar Network.dyn_peer[242] 	lookupStabilitySig:mean 	0.85278263594955
scalar Network.dyn_peer[242] 	lookupHopsSig:mean 	7.6666666666667
scalar Network.dyn_peer[243] 	lookupTimeSig:mean 	1.3
scalar Network.dyn_peer[243] 	lookupStabilitySig:mean 	0.604770867154
scalar Network.dyn_peer[243] 	lookupHopsSig:mean 	12.25
scalar Network.dyn_peer[244] 	lookupTimeSig:mean 	0.96666666666667
scalar Network.dyn_peer[244] 	lookupStabilitySig:mean 	0.68425014366706
scalar Network.dyn_peer[244] 	lookupHopsSig:mean 	8.8333333333333
scalar Network.dyn_peer[245] 	lookupTimeSig:mean 	0.76666666666667
scalar Network.dyn_peer[245] 	lookupStabilitySig:mean 	0.40837812423706
scalar Network.dyn_peer[245] 	lookupHopsSig:mean 	7
scalar Network.dyn_peer[246] 	lookupTimeSig:mean 	1.3
scalar Network.dyn_peer[246] 	lookupStabilitySig:mean 	0.54231150696675
scalar Network.dyn_peer[246] 	lookupHopsSig:mean 	12.333333333333
scalar Network.dyn_peer[247] 	lookupTimeSig:mean 	1.75
scalar Network.dyn_peer[247] 	lookupStabilitySig:mean 	0.56355606019497
scalar Network.dyn_peer[247] 	lookupHopsSig:mean 	17
scalar Network.dyn_peer[248] 	lookupTimeSig:mean 	1.26
scalar Network.dyn_peer[248] 	lookupStabilitySig:mean 	0.87187960911542
scalar Network.dyn_peer[248] 	lookupHopsSig:mean 	11.8
scalar Network.dyn_peer[249] 	lookupTimeSig:mean 	1.2
scalar Network.dyn_peer[249] 	lookupStabilitySig:mean 	0.57492877542973
scalar Network.dyn_peer[249] 	lookupHopsSig:mean 	11.333333333333
scalar Network.dyn_peer[250] 	lookupTimeSig:mean 	1.9
scalar Network.dyn_peer[250] 	lookupStabilitySig:mean 	0.21988795697689
scalar Network.dyn_peer[250] 	lookupHopsSig:mean 	18.5
scalar Network.dyn_peer[251] 	lookupTimeSig:mean 	1.1
scalar Network.dyn_peer[251] 	lookupStabilitySig:mean 	0.62587461769581
scalar Network.dyn_peer[251] 	lookupHopsSig:mean 	10.2
scalar Network.dyn_peer[252] 	lookupTimeSig:mean 	1.0125
scalar Network.dyn_peer[252] 	lookupStabilitySig:mean 	0.87187177117448
scalar Network.dyn_peer[252] 	lookupHopsSig:mean 	9.25
scalar Network.dyn_peer[253] 	lookupTimeSig:mean 	1.3333333333333
scalar Network.dyn_peer[253] 	lookupStabilitySig:mean 	0.54791392510136
scalar Network.dyn_peer[253] 	lookupHopsSig:mean 	12.666666666667
scalar Network.dyn_peer[254] 	lookupTimeSig:mean 	1.34
scalar Network.dyn_peer[254] 	lookupStabilitySig:mean 	0.83307827860117
scalar Network.dyn_peer[254] 	lookupHopsSig:mean 	12.6
scalar Network.dyn_peer[255] 	lookupTimeSig:mean 	0.66
scalar Network.dyn_peer[255] 	lookupStabilitySig:mean 	0.68906333744526
scalar Network.dyn_peer[255] 	lookupHopsSig:mean 	5.8
scalar Network.dyn_peer[256] 	lookupTimeSig:mean 	0.69090909090909
scalar Network.dyn_peer[256] 	lookupStabilitySig:mean 	0.93129296562719
scalar Network.dyn_peer[256] 	lookupHopsSig:mean 	6
scalar Network.dyn_peer[257] 	lookupTimeSig:mean 	1.0666666666667
scalar Network.dyn_peer[257] 	lookupStabilitySig:mean 	0.82035980497797
scalar Network.dyn_peer[257] 	lookupHopsSig:mean 	9.8333333333333
scalar Network.dyn_peer[258] 	lookupTimeSig:mean 	1.28
scalar Network.dyn_peer[258] 	lookupStabilitySig:mean 	0.85627745129168
scalar Network.dyn_peer[258] 	lookupHopsSig:mean 	12
scalar Network.dyn_peer[259] 	lookupTimeSig:mean 	1.36
scalar Network.dyn_peer[259] 	lookupStabilitySig:mean 	0.70891864001751
scalar Network.dyn_peer[259] 	lookupHopsSig:mean 	12.8
scalar Network.dyn_peer[260] 	lookupTimeSig:mean 	1.4428571428571
scalar Network.dyn_peer[260] 	lookupStabilitySig:mean 	0.76539876365236
scalar Network.dyn_peer[260] 	lookupHopsSig:mean 	13.571428571429
scalar Network.dyn_peer[261] 	lookupTimeSig:mean 	1.5
scalar Network.dyn_peer[261] 	lookupStabilitySig:mean 	0.56956845025222
scalar Network.dyn_peer[261] 	lookupHopsSig:mean 	14.333333333333
scalar Network.dyn_peer[262] 	lookupTimeSig:mean 	1.28
scalar Network.dyn_peer[262] 	lookupStabilitySig:mean 	0.64768690466881
scalar Network.dyn_peer[262] 	lookupHopsSig:mean 	12
scalar Network.dyn_peer[263] 	lookupTimeSig:mean 	1.4
scalar Network.dyn_peer[263] 	lookupStabilitySig:mean 	0.89137538442654
scalar Network.dyn_peer[263] 	lookupHopsSig:mean 	13.142857142857
scalar Network.dyn_peer[264] 	lookupTimeSig:mean 	0.93333333333333
scalar Network.dyn_peer[264] 	lookupStabilitySig:mean 	0.45009165505568
scalar Network.dyn_peer[264] 	lookupHopsSig:mean 	8.6666666666667
scalar Network.dyn_peer[265] 	lookupTimeSig:mean 	0.55
scalar Network.dyn_peer[265] 	lookupStabilitySig:mean 	0.50158728286624
scalar Network.dyn_peer[265] 	lookupHopsSig:mean 	4.75
scalar Network.dyn_peer[266] 	lookupTimeSig:mean 	0.55
scalar Network.dyn_peer[266] 	lookupStabilitySig:mean 	0.52502496540546
scalar Network.dyn_peer[266] 	lookupHopsSig:mean 	4.75
scalar Network.dyn_peer[267] 	lookupTimeSig:mean 	0.72222222222222
scalar Network.dyn_peer[267] 	lookupStabilitySig:mean 	0.88724138339361
scalar Network.dyn_peer[267] 	lookupHopsSig:mean 	6.3333333333333
scalar Network.dyn_peer[268] 	lookupTimeSig:mean 	0.82
scalar Network.dyn_peer[268] 	lookupStabilitySig:mean 	0.70822232179344
scalar Network.dyn_peer[268] 	lookupHopsSig:mean 	7.4
scalar Network.dyn_peer[269] 	lookupTimeSig:mean 	1.2
scalar Network.dyn_peer[269] 	lookupStabilitySig:mean 	0.74879390075803
scalar Network.dyn_peer[269] 	lookupHopsSig:mean 	11.2
scalar Network.dyn_peer[270] 	lookupTimeSig:mean 	1.25
scalar Network.dyn_peer[270] 	lookupStabilitySig:mean 	0.58972910046577
scalar Network.dyn_peer[270] 	lookupHopsSig:mean 	11.75
scalar Network.dyn_peer[271] 	lookupTimeSig:mean 	1.1
scalar Network.dyn_peer[271] 	lookupStabilitySig:mean 	0.73965193256736
scalar Network.dyn_peer[271] 	lookupHopsSig:mean 	10.2
scalar Network.dyn_peer[272] 	lookupTimeSig:mean 	0.61428571428571
scalar Network.dyn_peer[272] 	lookupStabilitySig:mean 	0.66644159651228
scalar Network.dyn_peer[272] 	lookupHopsSig:mean 	5.2857142857143
scalar Network.dyn_peer[273] 	lookupTimeSig:mean 	1.0166666666667
scalar Network.dyn_peer[273] 	lookupStabilitySig:mean 	0.70251602710535
scalar Network.dyn_peer[273] 	lookupHopsSig:mean 	9.3333333333333
scalar Network.dyn_peer[274] 	lookupTimeSig:mean 	0.66666666666667
scalar Network.dyn_peer[274] 	lookupStabilitySig:mean 	0.28134921193123
scalar Network.dyn_peer[274] 	lookupHopsSig:mean 	6
scalar Network.dyn_peer[275] 	lookupTimeSig:mean 	1.125
scalar Network.dyn_peer[275] 	lookupStabilitySig:mean 	0.90744391572662
scalar Network.dyn_peer[275] 	lookupHopsSig:mean 	10.375
scalar Network.dyn_peer[276] 	lookupTimeSig:mean 	1.225
scalar Network.dyn_peer[276] 	lookupStabilitySig:mean 	0.76349195092916
scalar Network.dyn_peer[276] 	lookupHopsSig:mean 	11.5
scalar Network.dyn_peer[277] 	lookupTimeSig:mean 	2.5
scalar Network.dyn_peer[277] 	lookupStabilitySig:mean 	0.48381962627172
scalar Network.dyn_peer[277] 	lookupHopsSig:mean 	24.5
scalar Network.dyn_peer[278] 	lookupTimeSig:mean 	1.5625
scalar Network.dyn_peer[278] 	lookupStabilitySig:mean 	0.92993384413421
scalar Network.dyn_peer[278] 	lookupHopsSig:mean 	14.75
scalar Network.dyn_peer[279] 	lookupTimeSig:mean 	1.56
scalar Network.dyn_peer[279] 	lookupStabilitySig:mean 	0.76920989081264
scalar Network.dyn_peer[279] 	lookupHopsSig:mean 	14.8
scalar Network.dyn_peer[280] 	lookupTimeSig:mean 	1
scalar Network.dyn_peer[280] 	lookupStabilitySig:mean 	0.67922255815938
scalar Network.dyn_peer[280] 	lookupHopsSig:mean 	9.25
scalar Network.dyn_peer[281] 	lookupTimeSig:mean 	1.1
scalar Network.dyn_peer[281] 	lookupStabilitySig:mean 	0.75812809417645
scalar Network.dyn_peer[281] 	lookupHopsSig:mean 	10.166666666667
scalar Network.dyn_peer[282] 	lookupTimeSig:mean 	1.3
scalar Network.dyn_peer[282] 	lookupStabilitySig:mean 	0.59783617127687
scalar Network.dyn_peer[282] 	lookupHopsSig:mean 	12.25
scalar Network.dyn_peer[283] 	lookupTimeSig:mean 	0.725
scalar Network.dyn_peer[283] 	lookupStabilitySig:mean 	0.67209657840431
scalar Network.dyn_peer[283] 	lookupHopsSig:mean 	6.5
scalar Network.dyn_peer[284] 	lookupTimeSig:mean 	1.3666666666667
scalar Network.dyn_peer[284] 	lookupStabilitySig:mean 	0.72824266677101
scalar Network.dyn_peer[284] 	lookupHopsSig:mean 	12.833333333333
scalar Network.dyn_peer[285] 	lookupTimeSig:mean 	0.56666666666667
scalar Network.dyn_peer[285] 	lookupStabilitySig:mean 	0.43116880953312
scalar Network.dyn_peer[285] 	lookupHopsSig:mean 	5
scalar Network.dyn_peer[286] 	lookupTimeSig:mean 	0.91538461538462
scalar Network.dyn_peer[286] 	lookupStabilitySig:mean 	0.91251995142263
scalar Network.dyn_peer[286] 	lookupHopsSig:mean 	8.2307692307692
scalar Network.dyn_peer[287] 	lookupTimeSig:mean 	0.98
scalar Network.dyn_peer[287] 	lookupStabilitySig:mean 	0.71442666947842
scalar Network.dyn_peer[287] 	lookupHopsSig:mean 	9
scalar Network.dyn_peer[288] 	lookupTimeSig:mean 	0.8
scalar Network.dyn_peer[288] 	lookupStabilitySig:mean 	0.80980086745694
scalar Network.dyn_peer[288] 	lookupHopsSig:mean 	7.125
scalar Network.dyn_peer[289] 	lookupTimeSig:mean 	0.86666666666667
scalar Network.dyn_peer[289] 	lookupStabilitySig:mean 	0.39595960328976
scalar Network.dyn_peer[289] 	lookupHopsSig:mean 	8
scalar Network.dyn_peer[290] 	lookupTimeSig:mean 	0.88571428571429
scalar Network.dyn_peer[290] 	lookupStabilitySig:mean 	0.71888151206076
scalar Network.dyn_peer[290] 	lookupHopsSig:mean 	8
scalar Network.dyn_peer[291] 	lookupTimeSig:mean 	0.8
scalar Network.dyn_peer[291] 	lookupStabilitySig:mean 	0.37619047860305
scalar Network.dyn_peer[291] 	lookupHopsSig:mean 	7.3333333333333
scalar Network.dyn_peer[292] 	lookupTimeSig:mean 	0.96666666666667
scalar Network.dyn_peer[292] 	lookupStabilitySig:mean 	0.40274412930012
scalar Network.dyn_peer[292] 	lookupHopsSig:mean 	9
scalar Network.dyn_peer[293] 	lookupTimeSig:mean 	1.18
scalar Network.dyn_peer[293] 	lookupStabilitySig:mean 	0.63678141832352
scalar Network.dyn_peer[293] 	lookupHopsSig:mean 	11
scalar Network.dyn_peer[294] 	lookupTimeSig:mean 	1.1714285714286
scalar Network.dyn_peer[294] 	lookupStabilitySig:mean 	0.83233059217621
scalar Network.dyn_peer[294] 	lookupHopsSig:mean 	10.857142857143
scalar Network.dyn_peer[295] 	lookupTimeSig:mean 	0.9
scalar Network.dyn_peer[295] 	lookupStabilitySig:mean 	0.53082998283207
scalar Network.dyn_peer[295] 	lookupHopsSig:mean 	8.25
scalar Network.dyn_peer[296] 	lookupTimeSig:mean 	1.6666666666667
scalar Network.dyn_peer[296] 	lookupStabilitySig:mean 	0.69407670696576
scalar Network.dyn_peer[296] 	lookupHopsSig:mean 	16
scalar Network.dyn_peer[297] 	lookupTimeSig:mean 	1.25
scalar Network.dyn_peer[297] 	lookupStabilitySig:mean 	0.72887735115364
scalar Network.dyn_peer[297] 	lookupHopsSig:mean 	11.625
scalar Network.dyn_peer[298] 	lookupTimeSig:mean 	0.6875
scalar Network.dyn_peer[298] 	lookupStabilitySig:mean 	0.83335126872407
scalar Network.dyn_peer[298] 	lookupHopsSig:mean 	6
scalar Network.dyn_peer[299] 	lookupTimeSig:mean 	1.3111111111111
scalar Network.dyn_peer[299] 	lookupStabilitySig:mean 	0.9119961452153
scalar Network.dyn_peer[299] 	lookupHopsSig:mean 	12.222222222222
scalar Network.dyn_peer[300] 	lookupTimeSig:mean 	-nan
scalar Network.dyn_peer[300] 	lookupStabilitySig:mean 	-nan
scalar Network.dyn_peer[300] 	lookupHopsSig:mean 	-nan
scalar Network.dyn_peer[301] 	lookupTimeSig:mean 	-nan
scalar Network.dyn_peer[301] 	lookupStabilitySig:mean 	-nan
scalar Network.dyn_peer[301] 	lookupHopsSig:mean 	-nan
scalar Network.dyn_peer[302] 	lookupTimeSig:mean 	-nan
scalar Network.dyn_peer[302] 	lookupStabilitySig:mean 	-nan
scalar Network.dyn_peer[302] 	lookupHopsSig:mean 	-nan
scalar Network.dyn_peer[303] 	lookupTimeSig:mean 	-nan
scalar Network.dyn_peer[303] 	lookupStabilitySig:mean 	-nan
scalar Network.dyn_peer[303] 	lookupHopsSig:mean 	-nan
scalar Network.dyn_peer[304] 	lookupTimeSig:mean 	-nan
scalar Network.dyn_peer[304] 	lookupStabilitySig:mean 	-nan
scalar Network.dyn_peer[304] 	lookupHopsSig:mean 	-nan
scalar Network.dyn_peer[305] 	lookupTimeSig:mean 	-nan
scalar Network.dyn_peer[305] 	lookupStabilitySig:mean 	-nan
scalar Network.dyn_peer[305] 	lookupHopsSig:mean 	-nan
scalar Network.dyn_peer[306] 	lookupTimeSig:mean 	-nan
scalar Network.dyn_peer[306] 	lookupStabilitySig:mean 	-nan
scalar Network.dyn_peer[306] 	lookupHopsSig:mean 	-nan
scalar Network.dyn_peer[307] 	lookupTimeSig:mean 	-nan
scalar Network.dyn_peer[307] 	lookupStabilitySig:mean 	-nan
scalar Network.dyn_peer[307] 	lookupHopsSig:mean 	-nan
scalar Network.dyn_peer[308] 	lookupTimeSig:mean 	-nan
scalar Network.dyn_peer[308] 	lookupStabilitySig:mean 	-nan
scalar Network.dyn_peer[308] 	lookupHopsSig:mean 	-nan
scalar Network.dyn_peer[309] 	lookupTimeSig:mean 	-nan
scalar Network.dyn_peer[309] 	lookupStabilitySig:mean 	-nan
scalar Network.dyn_peer[309] 	lookupHopsSig:mean 	-nan
scalar Network.dyn_peer[310] 	lookupTimeSig:mean 	-nan
scalar Network.dyn_peer[310] 	lookupStabilitySig:mean 	-nan
scalar Network.dyn_peer[310] 	lookupHopsSig:mean 	-nan
scalar Network.dyn_peer[311] 	lookupTimeSig:mean 	-nan
scalar Network.dyn_peer[311] 	lookupStabilitySig:mean 	-nan
scalar Network.dyn_peer[311] 	lookupHopsSig:mean 	-nan
scalar Network.dyn_peer[312] 	lookupTimeSig:mean 	-nan
scalar Network.dyn_peer[312] 	lookupStabilitySig:mean 	-nan
scalar Network.dyn_peer[312] 	lookupHopsSig:mean 	-nan
scalar Network.dyn_peer[313] 	lookupTimeSig:mean 	-nan
scalar Network.dyn_peer[313] 	lookupStabilitySig:mean 	-nan
scalar Network.dyn_peer[313] 	lookupHopsSig:mean 	-nan
scalar Network.dyn_peer[314] 	lookupTimeSig:mean 	-nan
scalar Network.dyn_peer[314] 	lookupStabilitySig:mean 	-nan
scalar Network.dyn_peer[314] 	lookupHopsSig:mean 	-nan
scalar Network.dyn_peer[315] 	lookupTimeSig:mean 	-nan
scalar Network.dyn_peer[315] 	lookupStabilitySig:mean 	-nan
scalar Network.dyn_peer[315] 	lookupHopsSig:mean 	-nan
scalar Network.dyn_peer[316] 	lookupTimeSig:mean 	-nan
scalar Network.dyn_peer[316] 	lookupStabilitySig:mean 	-nan
scalar Network.dyn_peer[316] 	lookupHopsSig:mean 	-nan
scalar Network.dyn_peer[317] 	lookupTimeSig:mean 	-nan
scalar Network.dyn_peer[317] 	lookupStabilitySig:mean 	-nan
scalar Network.dyn_peer[317] 	lookupHopsSig:mean 	-nan
scalar Network.dyn_peer[318] 	lookupTimeSig:mean 	-nan
scalar Network.dyn_peer[318] 	lookupStabilitySig:mean 	-nan
scalar Network.dyn_peer[318] 	lookupHopsSig:mean 	-nan
scalar Network.dyn_peer[319] 	lookupTimeSig:mean 	-nan
scalar Network.dyn_peer[319] 	lookupStabilitySig:mean 	-nan
scalar Network.dyn_peer[319] 	lookupHopsSig:mean 	-nan
scalar Network.dyn_peer[320] 	lookupTimeSig:mean 	-nan
scalar Network.dyn_peer[320] 	lookupStabilitySig:mean 	-nan
scalar Network.dyn_peer[320] 	lookupHopsSig:mean 	-nan
scalar Network.dyn_peer[321] 	lookupTimeSig:mean 	-nan
scalar Network.dyn_peer[321] 	lookupStabilitySig:mean 	-nan
scalar Network.dyn_peer[321] 	lookupHopsSig:mean 	-nan
scalar Network.dyn_peer[322] 	lookupTimeSig:mean 	-nan
scalar Network.dyn_peer[322] 	lookupStabilitySig:mean 	-nan
scalar Network.dyn_peer[322] 	lookupHopsSig:mean 	-nan
scalar Network.dyn_peer[323] 	lookupTimeSig:mean 	-nan
scalar Network.dyn_peer[323] 	lookupStabilitySig:mean 	-nan
scalar Network.dyn_peer[323] 	lookupHopsSig:mean 	-nan
scalar Network.dyn_peer[324] 	lookupTimeSig:mean 	-nan
scalar Network.dyn_peer[324] 	lookupStabilitySig:mean 	-nan
scalar Network.dyn_peer[324] 	lookupHopsSig:mean 	-nan
scalar Network.dyn_peer[325] 	lookupTimeSig:mean 	-nan
scalar Network.dyn_peer[325] 	lookupStabilitySig:mean 	-nan
scalar Network.dyn_peer[325] 	lookupHopsSig:mean 	-nan
scalar Network.dyn_peer[326] 	lookupTimeSig:mean 	-nan
scalar Network.dyn_peer[326] 	lookupStabilitySig:mean 	-nan
scalar Network.dyn_peer[326] 	lookupHopsSig:mean 	-nan
scalar Network.dyn_peer[327] 	lookupTimeSig:mean 	-nan
scalar Network.dyn_peer[327] 	lookupStabilitySig:mean 	-nan
scalar Network.dyn_peer[327] 	lookupHopsSig:mean 	-nan
scalar Network.dyn_peer[328] 	lookupTimeSig:mean 	-nan
scalar Network.dyn_peer[328] 	lookupStabilitySig:mean 	-nan
scalar Network.dyn_peer[328] 	lookupHopsSig:mean 	-nan
scalar Network.dyn_peer[329] 	lookupTimeSig:mean 	-nan
scalar Network.dyn_peer[329] 	lookupStabilitySig:mean 	-nan
scalar Network.dyn_peer[329] 	lookupHopsSig:mean 	-nan
scalar Network.dyn_peer[330] 	lookupTimeSig:mean 	-nan
scalar Network.dyn_peer[330] 	lookupStabilitySig:mean 	-nan
scalar Network.dyn_peer[330] 	lookupHopsSig:mean 	-nan
scalar Network.dyn_peer[331] 	lookupTimeSig:mean 	-nan
scalar Network.dyn_peer[331] 	lookupStabilitySig:mean 	-nan
scalar Network.dyn_peer[331] 	lookupHopsSig:mean 	-nan
scalar Network.dyn_peer[332] 	lookupTimeSig:mean 	-nan
scalar Network.dyn_peer[332] 	lookupStabilitySig:mean 	-nan
scalar Network.dyn_peer[332] 	lookupHopsSig:mean 	-nan
scalar Network.dyn_peer[333] 	lookupTimeSig:mean 	-nan
scalar Network.dyn_peer[333] 	lookupStabilitySig:mean 	-nan
scalar Network.dyn_peer[333] 	lookupHopsSig:mean 	-nan
scalar Network.dyn_peer[334] 	lookupTimeSig:mean 	-nan
scalar Network.dyn_peer[334] 	lookupStabilitySig:mean 	-nan
scalar Network.dyn_peer[334] 	lookupHopsSig:mean 	-nan
scalar Network.dyn_peer[335] 	lookupTimeSig:mean 	-nan
scalar Network.dyn_peer[335] 	lookupStabilitySig:mean 	-nan
scalar Network.dyn_peer[335] 	lookupHopsSig:mean 	-nan
scalar Network.dyn_peer[336] 	lookupTimeSig:mean 	-nan
scalar Network.dyn_peer[336] 	lookupStabilitySig:mean 	-nan
scalar Network.dyn_peer[336] 	lookupHopsSig:mean 	-nan
scalar Network.dyn_peer[337] 	lookupTimeSig:mean 	-nan
scalar Network.dyn_peer[337] 	lookupStabilitySig:mean 	-nan
scalar Network.dyn_peer[337] 	lookupHopsSig:mean 	-nan
scalar Network.dyn_peer[338] 	lookupTimeSig:mean 	-nan
scalar Network.dyn_peer[338] 	lookupStabilitySig:mean 	-nan
scalar Network.dyn_peer[338] 	lookupHopsSig:mean 	-nan
scalar Network.dyn_peer[339] 	lookupTimeSig:mean 	-nan
scalar Network.dyn_peer[339] 	lookupStabilitySig:mean 	-nan
scalar Network.dyn_peer[339] 	lookupHopsSig:mean 	-nan
scalar Network.dyn_peer[340] 	lookupTimeSig:mean 	-nan
scalar Network.dyn_peer[340] 	lookupStabilitySig:mean 	-nan
scalar Network.dyn_peer[340] 	lookupHopsSig:mean 	-nan
scalar Network.dyn_peer[341] 	lookupTimeSig:mean 	-nan
scalar Network.dyn_peer[341] 	lookupStabilitySig:mean 	-nan
scalar Network.dyn_peer[341] 	lookupHopsSig:mean 	-nan
scalar Network.dyn_peer[342] 	lookupTimeSig:mean 	-nan
scalar Network.dyn_peer[342] 	lookupStabilitySig:mean 	-nan
scalar Network.dyn_peer[342] 	lookupHopsSig:mean 	-nan
scalar Network.dyn_peer[343] 	lookupTimeSig:mean 	-nan
scalar Network.dyn_peer[343] 	lookupStabilitySig:mean 	-nan
scalar Network.dyn_peer[343] 	lookupHopsSig:mean 	-nan
scalar Network.dyn_peer[344] 	lookupTimeSig:mean 	-nan
scalar Network.dyn_peer[344] 	lookupStabilitySig:mean 	-nan
scalar Network.dyn_peer[344] 	lookupHopsSig:mean 	-nan
scalar Network.dyn_peer[345] 	lookupTimeSig:mean 	-nan
scalar Network.dyn_peer[345] 	lookupStabilitySig:mean 	-nan
scalar Network.dyn_peer[345] 	lookupHopsSig:mean 	-nan
scalar Network.dyn_peer[346] 	lookupTimeSig:mean 	-nan
scalar Network.dyn_peer[346] 	lookupStabilitySig:mean 	-nan
scalar Network.dyn_peer[346] 	lookupHopsSig:mean 	-nan
scalar Network.dyn_peer[347] 	lookupTimeSig:mean 	-nan
scalar Network.dyn_peer[347] 	lookupStabilitySig:mean 	-nan
scalar Network.dyn_peer[347] 	lookupHopsSig:mean 	-nan
scalar Network.dyn_peer[348] 	lookupTimeSig:mean 	-nan
scalar Network.dyn_peer[348] 	lookupStabilitySig:mean 	-nan
scalar Network.dyn_peer[348] 	lookupHopsSig:mean 	-nan
scalar Network.dyn_peer[349] 	lookupTimeSig:mean 	-nan
scalar Network.dyn_peer[349] 	lookupStabilitySig:mean 	-nan
scalar Network.dyn_peer[349] 	lookupHopsSig:mean 	-nan
scalar Network.dyn_peer[350] 	lookupTimeSig:mean 	-nan
scalar Network.dyn_peer[350] 	lookupStabilitySig:mean 	-nan
scalar Network.dyn_peer[350] 	lookupHopsSig:mean 	-nan
scalar Network.dyn_peer[351] 	lookupTimeSig:mean 	-nan
scalar Network.dyn_peer[351] 	lookupStabilitySig:mean 	-nan
scalar Network.dyn_peer[351] 	lookupHopsSig:mean 	-nan
scalar Network.dyn_peer[352] 	lookupTimeSig:mean 	-nan
scalar Network.dyn_peer[352] 	lookupStabilitySig:mean 	-nan
scalar Network.dyn_peer[352] 	lookupHopsSig:mean 	-nan
scalar Network.dyn_peer[353] 	lookupTimeSig:mean 	-nan
scalar Network.dyn_peer[353] 	lookupStabilitySig:mean 	-nan
scalar Network.dyn_peer[353] 	lookupHopsSig:mean 	-nan
scalar Network.dyn_peer[354] 	lookupTimeSig:mean 	-nan
scalar Network.dyn_peer[354] 	lookupStabilitySig:mean 	-nan
scalar Network.dyn_peer[354] 	lookupHopsSig:mean 	-nan
scalar Network.dyn_peer[355] 	lookupTimeSig:mean 	-nan
scalar Network.dyn_peer[355] 	lookupStabilitySig:mean 	-nan
scalar Network.dyn_peer[355] 	lookupHopsSig:mean 	-nan
scalar Network.dyn_peer[356] 	lookupTimeSig:mean 	-nan
scalar Network.dyn_peer[356] 	lookupStabilitySig:mean 	-nan
scalar Network.dyn_peer[356] 	lookupHopsSig:mean 	-nan
scalar Network.dyn_peer[357] 	lookupTimeSig:mean 	-nan
scalar Network.dyn_peer[357] 	lookupStabilitySig:mean 	-nan
scalar Network.dyn_peer[357] 	lookupHopsSig:mean 	-nan
scalar Network.dyn_peer[358] 	lookupTimeSig:mean 	-nan
scalar Network.dyn_peer[358] 	lookupStabilitySig:mean 	-nan
scalar Network.dyn_peer[358] 	lookupHopsSig:mean 	-nan
scalar Network.dyn_peer[359] 	lookupTimeSig:mean 	-nan
scalar Network.dyn_peer[359] 	lookupStabilitySig:mean 	-nan
scalar Network.dyn_peer[359] 	lookupHopsSig:mean 	-nan
scalar Network.dyn_peer[360] 	lookupTimeSig:mean 	-nan
scalar Network.dyn_peer[360] 	lookupStabilitySig:mean 	-nan
scalar Network.dyn_peer[360] 	lookupHopsSig:mean 	-nan
scalar Network.dyn_peer[361] 	lookupTimeSig:mean 	-nan
scalar Network.dyn_peer[361] 	lookupStabilitySig:mean 	-nan
scalar Network.dyn_peer[361] 	lookupHopsSig:mean 	-nan
scalar Network.dyn_peer[362] 	lookupTimeSig:mean 	-nan
scalar Network.dyn_peer[362] 	lookupStabilitySig:mean 	-nan
scalar Network.dyn_peer[362] 	lookupHopsSig:mean 	-nan
scalar Network.dyn_peer[363] 	lookupTimeSig:mean 	-nan
scalar Network.dyn_peer[363] 	lookupStabilitySig:mean 	-nan
scalar Network.dyn_peer[363] 	lookupHopsSig:mean 	-nan
scalar Network.dyn_peer[364] 	lookupTimeSig:mean 	-nan
scalar Network.dyn_peer[364] 	lookupStabilitySig:mean 	-nan
scalar Network.dyn_peer[364] 	lookupHopsSig:mean 	-nan
scalar Network.dyn_peer[365] 	lookupTimeSig:mean 	-nan
scalar Network.dyn_peer[365] 	lookupStabilitySig:mean 	-nan
scalar Network.dyn_peer[365] 	lookupHopsSig:mean 	-nan
scalar Network.dyn_peer[366] 	lookupTimeSig:mean 	-nan
scalar Network.dyn_peer[366] 	lookupStabilitySig:mean 	-nan
scalar Network.dyn_peer[366] 	lookupHopsSig:mean 	-nan
scalar Network.dyn_peer[367] 	lookupTimeSig:mean 	-nan
scalar Network.dyn_peer[367] 	lookupStabilitySig:mean 	-nan
scalar Network.dyn_peer[367] 	lookupHopsSig:mean 	-nan
scalar Network.dyn_peer[368] 	lookupTimeSig:mean 	-nan
scalar Network.dyn_peer[368] 	lookupStabilitySig:mean 	-nan
scalar Network.dyn_peer[368] 	lookupHopsSig:mean 	-nan
scalar Network.dyn_peer[369] 	lookupTimeSig:mean 	-nan
scalar Network.dyn_peer[369] 	lookupStabilitySig:mean 	-nan
scalar Network.dyn_peer[369] 	lookupHopsSig:mean 	-nan
scalar Network.dyn_peer[370] 	lookupTimeSig:mean 	-nan
scalar Network.dyn_peer[370] 	lookupStabilitySig:mean 	-nan
scalar Network.dyn_peer[370] 	lookupHopsSig:mean 	-nan
scalar Network.dyn_peer[371] 	lookupTimeSig:mean 	-nan
scalar Network.dyn_peer[371] 	lookupStabilitySig:mean 	-nan
scalar Network.dyn_peer[371] 	lookupHopsSig:mean 	-nan
scalar Network.dyn_peer[372] 	lookupTimeSig:mean 	-nan
scalar Network.dyn_peer[372] 	lookupStabilitySig:mean 	-nan
scalar Network.dyn_peer[372] 	lookupHopsSig:mean 	-nan
scalar Network.dyn_peer[373] 	lookupTimeSig:mean 	-nan
scalar Network.dyn_peer[373] 	lookupStabilitySig:mean 	-nan
scalar Network.dyn_peer[373] 	lookupHopsSig:mean 	-nan
scalar Network.dyn_peer[374] 	lookupTimeSig:mean 	-nan
scalar Network.dyn_peer[374] 	lookupStabilitySig:mean 	-nan
scalar Network.dyn_peer[374] 	lookupHopsSig:mean 	-nan
scalar Network.dyn_peer[375] 	lookupTimeSig:mean 	-nan
scalar Network.dyn_peer[375] 	lookupStabilitySig:mean 	-nan
scalar Network.dyn_peer[375] 	lookupHopsSig:mean 	-nan
scalar Network.dyn_peer[376] 	lookupTimeSig:mean 	-nan
scalar Network.dyn_peer[376] 	lookupStabilitySig:mean 	-nan
scalar Network.dyn_peer[376] 	lookupHopsSig:mean 	-nan
scalar Network.dyn_peer[377] 	lookupTimeSig:mean 	-nan
scalar Network.dyn_peer[377] 	lookupStabilitySig:mean 	-nan
scalar Network.dyn_peer[377] 	lookupHopsSig:mean 	-nan
scalar Network.dyn_peer[378] 	lookupTimeSig:mean 	-nan
scalar Network.dyn_peer[378] 	lookupStabilitySig:mean 	-nan
scalar Network.dyn_peer[378] 	lookupHopsSig:mean 	-nan
scalar Network.dyn_peer[379] 	lookupTimeSig:mean 	-nan
scalar Network.dyn_peer[379] 	lookupStabilitySig:mean 	-nan
scalar Network.dyn_peer[379] 	lookupHopsSig:mean 	-nan
scalar Network.dyn_peer[380] 	lookupTimeSig:mean 	-nan
scalar Network.dyn_peer[380] 	lookupStabilitySig:mean 	-nan
scalar Network.dyn_peer[380] 	lookupHopsSig:mean 	-nan
scalar Network.dyn_peer[381] 	lookupTimeSig:mean 	-nan
scalar Network.dyn_peer[381] 	lookupStabilitySig:mean 	-nan
scalar Network.dyn_peer[381] 	lookupHopsSig:mean 	-nan
scalar Network.dyn_peer[382] 	lookupTimeSig:mean 	-nan
scalar Network.dyn_peer[382] 	lookupStabilitySig:mean 	-nan
scalar Network.dyn_peer[382] 	lookupHopsSig:mean 	-nan
scalar Network.dyn_peer[383] 	lookupTimeSig:mean 	-nan
scalar Network.dyn_peer[383] 	lookupStabilitySig:mean 	-nan
scalar Network.dyn_peer[383] 	lookupHopsSig:mean 	-nan
scalar Network.dyn_peer[384] 	lookupTimeSig:mean 	-nan
scalar Network.dyn_peer[384] 	lookupStabilitySig:mean 	-nan
scalar Network.dyn_peer[384] 	lookupHopsSig:mean 	-nan
scalar Network.dyn_peer[385] 	lookupTimeSig:mean 	-nan
scalar Network.dyn_peer[385] 	lookupStabilitySig:mean 	-nan
scalar Network.dyn_peer[385] 	lookupHopsSig:mean 	-nan
scalar Network.dyn_peer[386] 	lookupTimeSig:mean 	-nan
scalar Network.dyn_peer[386] 	lookupStabilitySig:mean 	-nan
scalar Network.dyn_peer[386] 	lookupHopsSig:mean 	-nan
scalar Network.dyn_peer[387] 	lookupTimeSig:mean 	-nan
scalar Network.dyn_peer[387] 	lookupStabilitySig:mean 	-nan
scalar Network.dyn_peer[387] 	lookupHopsSig:mean 	-nan
scalar Network.dyn_peer[388] 	lookupTimeSig:mean 	-nan
scalar Network.dyn_peer[388] 	lookupStabilitySig:mean 	-nan
scalar Network.dyn_peer[388] 	lookupHopsSig:mean 	-nan
scalar Network.dyn_peer[389] 	lookupTimeSig:mean 	-nan
scalar Network.dyn_peer[389] 	lookupStabilitySig:mean 	-nan
scalar Network.dyn_peer[389] 	lookupHopsSig:mean 	-nan
scalar Network.dyn_peer[390] 	lookupTimeSig:mean 	-nan
scalar Network.dyn_peer[390] 	lookupStabilitySig:mean 	-nan
scalar Network.dyn_peer[390] 	lookupHopsSig:mean 	-nan
scalar Network.dyn_peer[391] 	lookupTimeSig:mean 	-nan
scalar Network.dyn_peer[391] 	lookupStabilitySig:mean 	-nan
scalar Network.dyn_peer[391] 	lookupHopsSig:mean 	-nan
scalar Network.dyn_peer[392] 	lookupTimeSig:mean 	-nan
scalar Network.dyn_peer[392] 	lookupStabilitySig:mean 	-nan
scalar Network.dyn_peer[392] 	lookupHopsSig:mean 	-nan
scalar Network.dyn_peer[393] 	lookupTimeSig:mean 	-nan
scalar Network.dyn_peer[393] 	lookupStabilitySig:mean 	-nan
scalar Network.dyn_peer[393] 	lookupHopsSig:mean 	-nan
scalar Network.dyn_peer[394] 	lookupTimeSig:mean 	-nan
scalar Network.dyn_peer[394] 	lookupStabilitySig:mean 	-nan
scalar Network.dyn_peer[394] 	lookupHopsSig:mean 	-nan
scalar Network.dyn_peer[395] 	lookupTimeSig:mean 	-nan
scalar Network.dyn_peer[395] 	lookupStabilitySig:mean 	-nan
scalar Network.dyn_peer[395] 	lookupHopsSig:mean 	-nan
scalar Network.dyn_peer[396] 	lookupTimeSig:mean 	-nan
scalar Network.dyn_peer[396] 	lookupStabilitySig:mean 	-nan
scalar Network.dyn_peer[396] 	lookupHopsSig:mean 	-nan
scalar Network.dyn_peer[397] 	lookupTimeSig:mean 	-nan
scalar Network.dyn_peer[397] 	lookupStabilitySig:mean 	-nan
scalar Network.dyn_peer[397] 	lookupHopsSig:mean 	-nan
scalar Network.dyn_peer[398] 	lookupTimeSig:mean 	-nan
scalar Network.dyn_peer[398] 	lookupStabilitySig:mean 	-nan
scalar Network.dyn_peer[398] 	lookupHopsSig:mean 	-nan
scalar Network.dyn_peer[399] 	lookupTimeSig:mean 	-nan
scalar Network.dyn_peer[399] 	lookupStabilitySig:mean 	-nan
scalar Network.dyn_peer[399] 	lookupHopsSig:mean 	-nan
scalar Network.dyn_peer[400] 	lookupTimeSig:mean 	-nan
scalar Network.dyn_peer[400] 	lookupStabilitySig:mean 	-nan
scalar Network.dyn_peer[400] 	lookupHopsSig:mean 	-nan
scalar Network.dyn_peer[401] 	lookupTimeSig:mean 	-nan
scalar Network.dyn_peer[401] 	lookupStabilitySig:mean 	-nan
scalar Network.dyn_peer[401] 	lookupHopsSig:mean 	-nan
scalar Network.dyn_peer[402] 	lookupTimeSig:mean 	-nan
scalar Network.dyn_peer[402] 	lookupStabilitySig:mean 	-nan
scalar Network.dyn_peer[402] 	lookupHopsSig:mean 	-nan
scalar Network.dyn_peer[403] 	lookupTimeSig:mean 	-nan
scalar Network.dyn_peer[403] 	lookupStabilitySig:mean 	-nan
scalar Network.dyn_peer[403] 	lookupHopsSig:mean 	-nan
scalar Network.dyn_peer[404] 	lookupTimeSig:mean 	-nan
scalar Network.dyn_peer[404] 	lookupStabilitySig:mean 	-nan
scalar Network.dyn_peer[404] 	lookupHopsSig:mean 	-nan
scalar Network.dyn_peer[405] 	lookupTimeSig:mean 	-nan
scalar Network.dyn_peer[405] 	lookupStabilitySig:mean 	-nan
scalar Network.dyn_peer[405] 	lookupHopsSig:mean 	-nan
scalar Network.dyn_peer[406] 	lookupTimeSig:mean 	-nan
scalar Network.dyn_peer[406] 	lookupStabilitySig:mean 	-nan
scalar Network.dyn_peer[406] 	lookupHopsSig:mean 	-nan
scalar Network.dyn_peer[407] 	lookupTimeSig:mean 	-nan
scalar Network.dyn_peer[407] 	lookupStabilitySig:mean 	-nan
scalar Network.dyn_peer[407] 	lookupHopsSig:mean 	-nan
scalar Network.dyn_peer[408] 	lookupTimeSig:mean 	-nan
scalar Network.dyn_peer[408] 	lookupStabilitySig:mean 	-nan
scalar Network.dyn_peer[408] 	lookupHopsSig:mean 	-nan
scalar Network.dyn_peer[409] 	lookupTimeSig:mean 	-nan
scalar Network.dyn_peer[409] 	lookupStabilitySig:mean 	-nan
scalar Network.dyn_peer[409] 	lookupHopsSig:mean 	-nan
scalar Network.dyn_peer[410] 	lookupTimeSig:mean 	-nan
scalar Network.dyn_peer[410] 	lookupStabilitySig:mean 	-nan
scalar Network.dyn_peer[410] 	lookupHopsSig:mean 	-nan
scalar Network.dyn_peer[411] 	lookupTimeSig:mean 	-nan
scalar Network.dyn_peer[411] 	lookupStabilitySig:mean 	-nan
scalar Network.dyn_peer[411] 	lookupHopsSig:mean 	-nan
scalar Network.dyn_peer[412] 	lookupTimeSig:mean 	-nan
scalar Network.dyn_peer[412] 	lookupStabilitySig:mean 	-nan
scalar Network.dyn_peer[412] 	lookupHopsSig:mean 	-nan
scalar Network.dyn_peer[413] 	lookupTimeSig:mean 	-nan
scalar Network.dyn_peer[413] 	lookupStabilitySig:mean 	-nan
scalar Network.dyn_peer[413] 	lookupHopsSig:mean 	-nan
scalar Network.dyn_peer[414] 	lookupTimeSig:mean 	-nan
scalar Network.dyn_peer[414] 	lookupStabilitySig:mean 	-nan
scalar Network.dyn_peer[414] 	lookupHopsSig:mean 	-nan
scalar Network.dyn_peer[415] 	lookupTimeSig:mean 	-nan
scalar Network.dyn_peer[415] 	lookupStabilitySig:mean 	-nan
scalar Network.dyn_peer[415] 	lookupHopsSig:mean 	-nan
scalar Network.dyn_peer[416] 	lookupTimeSig:mean 	-nan
scalar Network.dyn_peer[416] 	lookupStabilitySig:mean 	-nan
scalar Network.dyn_peer[416] 	lookupHopsSig:mean 	-nan
scalar Network.dyn_peer[417] 	lookupTimeSig:mean 	-nan
scalar Network.dyn_peer[417] 	lookupStabilitySig:mean 	-nan
scalar Network.dyn_peer[417] 	lookupHopsSig:mean 	-nan
scalar Network.dyn_peer[418] 	lookupTimeSig:mean 	-nan
scalar Network.dyn_peer[418] 	lookupStabilitySig:mean 	-nan
scalar Network.dyn_peer[418] 	lookupHopsSig:mean 	-nan
scalar Network.dyn_peer[419] 	lookupTimeSig:mean 	-nan
scalar Network.dyn_peer[419] 	lookupStabilitySig:mean 	-nan
scalar Network.dyn_peer[419] 	lookupHopsSig:mean 	-nan
scalar Network.dyn_peer[420] 	lookupTimeSig:mean 	-nan
scalar Network.dyn_peer[420] 	lookupStabilitySig:mean 	-nan
scalar Network.dyn_peer[420] 	lookupHopsSig:mean 	-nan
scalar Network.dyn_peer[421] 	lookupTimeSig:mean 	-nan
scalar Network.dyn_peer[421] 	lookupStabilitySig:mean 	-nan
scalar Network.dyn_peer[421] 	lookupHopsSig:mean 	-nan
scalar Network.dyn_peer[422] 	lookupTimeSig:mean 	-nan
scalar Network.dyn_peer[422] 	lookupStabilitySig:mean 	-nan
scalar Network.dyn_peer[422] 	lookupHopsSig:mean 	-nan
scalar Network.dyn_peer[423] 	lookupTimeSig:mean 	-nan
scalar Network.dyn_peer[423] 	lookupStabilitySig:mean 	-nan
scalar Network.dyn_peer[423] 	lookupHopsSig:mean 	-nan
scalar Network.dyn_peer[424] 	lookupTimeSig:mean 	-nan
scalar Network.dyn_peer[424] 	lookupStabilitySig:mean 	-nan
scalar Network.dyn_peer[424] 	lookupHopsSig:mean 	-nan
scalar Network.dyn_peer[425] 	lookupTimeSig:mean 	-nan
scalar Network.dyn_peer[425] 	lookupStabilitySig:mean 	-nan
scalar Network.dyn_peer[425] 	lookupHopsSig:mean 	-nan
scalar Network.dyn_peer[426] 	lookupTimeSig:mean 	-nan
scalar Network.dyn_peer[426] 	lookupStabilitySig:mean 	-nan
scalar Network.dyn_peer[426] 	lookupHopsSig:mean 	-nan
scalar Network.dyn_peer[427] 	lookupTimeSig:mean 	-nan
scalar Network.dyn_peer[427] 	lookupStabilitySig:mean 	-nan
scalar Network.dyn_peer[427] 	lookupHopsSig:mean 	-nan
scalar Network.dyn_peer[428] 	lookupTimeSig:mean 	-nan
scalar Network.dyn_peer[428] 	lookupStabilitySig:mean 	-nan
scalar Network.dyn_peer[428] 	lookupHopsSig:mean 	-nan
scalar Network.dyn_peer[429] 	lookupTimeSig:mean 	-nan
scalar Network.dyn_peer[429] 	lookupStabilitySig:mean 	-nan
scalar Network.dyn_peer[429] 	lookupHopsSig:mean 	-nan
scalar Network.dyn_peer[430] 	lookupTimeSig:mean 	-nan
scalar Network.dyn_peer[430] 	lookupStabilitySig:mean 	-nan
scalar Network.dyn_peer[430] 	lookupHopsSig:mean 	-nan
scalar Network.dyn_peer[431] 	lookupTimeSig:mean 	-nan
scalar Network.dyn_peer[431] 	lookupStabilitySig:mean 	-nan
scalar Network.dyn_peer[431] 	lookupHopsSig:mean 	-nan
scalar Network.dyn_peer[432] 	lookupTimeSig:mean 	-nan
scalar Network.dyn_peer[432] 	lookupStabilitySig:mean 	-nan
scalar Network.dyn_peer[432] 	lookupHopsSig:mean 	-nan
scalar Network.dyn_peer[433] 	lookupTimeSig:mean 	-nan
scalar Network.dyn_peer[433] 	lookupStabilitySig:mean 	-nan
scalar Network.dyn_peer[433] 	lookupHopsSig:mean 	-nan
scalar Network.dyn_peer[434] 	lookupTimeSig:mean 	-nan
scalar Network.dyn_peer[434] 	lookupStabilitySig:mean 	-nan
scalar Network.dyn_peer[434] 	lookupHopsSig:mean 	-nan
scalar Network.dyn_peer[435] 	lookupTimeSig:mean 	-nan
[...]
scalar Network.dyn_peer[883] 	lookupTimeSig:mean 	-nan
scalar Network.dyn_peer[883] 	lookupStabilitySig:mean 	-nan
scalar Network.dyn_peer[883] 	lookupHopsSig:mean 	-nan
scalar Network.dyn_peer[884] 	lookupTimeSig:mean 	-nan
scalar Network.dyn_peer[884] 	lookupStabilitySig:mean 	-nan
scalar Network.dyn_peer[884] 	lookupHopsSig:mean 	-nan
scalar Network.dyn_peer[885] 	lookupTimeSig:mean 	-nan
scalar Network.dyn_peer[885] 	lookupStabilitySig:mean 	-nan
scalar Network.dyn_peer[885] 	lookupHopsSig:mean 	-nan
scalar Network.dyn_peer[886] 	lookupTimeSig:mean 	-nan
scalar Network.dyn_peer[886] 	lookupStabilitySig:mean 	-nan
scalar Network.dyn_peer[886] 	lookupHopsSig:mean 	-nan
scalar Network.dyn_peer[887] 	lookupTimeSig:mean 	-nan
scalar Network.dyn_peer[887] 	lookupStabilitySig:mean 	-nan
scalar Network.dyn_peer[887] 	lookupHopsSig:mean 	-nan
scalar Network.dyn_peer[888] 	lookupTimeSig:mean 	-nan
scalar Network.dyn_peer[888] 	lookupStabilitySig:mean 	-nan
scalar Network.dyn_peer[888] 	lookupHopsSig:mean 	-nan
scalar Network.dyn_peer[889] 	lookupTimeSig:mean 	-nan
scalar Network.dyn_peer[889] 	lookupStabilitySig:mean 	-nan
scalar Network.dyn_peer[889] 	lookupHopsSig:mean 	-nan
scalar Network.dyn_peer[890] 	lookupTimeSig:mean 	-nan
scalar Network.dyn_peer[890] 	lookupStabilitySig:mean 	-nan
scalar Network.dyn_peer[890] 	lookupHopsSig:mean 	-nan
scalar Network.dyn_peer[891] 	lookupTimeSig:mean 	-nan
scalar Network.dyn_peer[891] 	lookupStabilitySig:mean 	-nan
scalar Network.dyn_peer[891] 	lookupHopsSig:mean 	-nan
scalar Network.dyn_peer[892] 	lookupTimeSig:mean 	-nan
scalar Network.dyn_peer[892] 	lookupStabilitySig:mean 	-nan
scalar Network.dyn_peer[892] 	lookupHopsSig:mean 	-nan
scalar Network.dyn_peer[893] 	lookupTimeSig:mean 	-nan
scalar Network.dyn_peer[893] 	lookupStabilitySig:mean 	-nan
scalar Network.dyn_peer[893] 	lookupHopsSig:mean 	-nan
scalar Network.dyn_peer[894] 	lookupTimeSig:mean 	-nan
scalar Network.dyn_peer[894] 	lookupStabilitySig:mean 	-nan
scalar Network.dyn_peer[894] 	lookupHopsSig:mean 	-nan
scalar Network.dyn_peer[895] 	lookupTimeSig:mean 	-nan
scalar Network.dyn_peer[895] 	lookupStabilitySig:mean 	-nan
scalar Network.dyn_peer[895] 	lookupHopsSig:mean 	-nan
scalar Network.dyn_peer[896] 	lookupTimeSig:mean 	-nan
scalar Network.dyn_peer[896] 	lookupStabilitySig:mean 	-nan
scalar Network.dyn_peer[896] 	lookupHopsSig:mean 	-nan
scalar Network.dyn_peer[897] 	lookupTimeSig:mean 	-nan
scalar Network.dyn_peer[897] 	lookupStabilitySig:mean 	-nan
scalar Network.dyn_peer[897] 	lookupHopsSig:mean 	-nan
scalar Network.dyn_peer[898] 	lookupTimeSig:mean 	-nan
scalar Network.dyn_peer[898] 	lookupStabilitySig:mean 	-nan
scalar Network.dyn_peer[898] 	lookupHopsSig:mean 	-nan
scalar Network.dyn_peer[899] 	lookupTimeSig:mean 	-nan
scalar Network.dyn_peer[899] 	lookupStabilitySig:mean 	-nan
scalar Network.dyn_peer[899] 	lookupHopsSig:mean 	-nan
scalar Network.dyn_peer[900] 	lookupTimeSig:mean 	-nan
scalar Network.dyn_peer[900] 	lookupStabilitySig:mean 	-nan
scalar Network.dyn_peer[900] 	lookupHopsSig:mean 	-nan
scalar Network.dyn_peer[901] 	lookupTimeSig:mean 	-nan
scalar Network.dyn_peer[901] 	lookupStabilitySig:mean 	-nan
scalar Network.dyn_peer[901] 	lookupHopsSig:mean 	-nan
scalar Network.dyn_peer[902] 	lookupTimeSig:mean 	-nan
scalar Network.dyn_peer[902] 	lookupStabilitySig:mean 	-nan
scalar Network.dyn_peer[902] 	lookupHopsSig:mean 	-nan
scalar Network.dyn_peer[903] 	lookupTimeSig:mean 	-nan
scalar Network.dyn_peer[903] 	lookupStabilitySig:mean 	-nan
scalar Network.dyn_peer[903] 	lookupHopsSig:mean 	-nan
scalar Network.dyn_peer[904] 	lookupTimeSig:mean 	-nan
scalar Network.dyn_peer[904] 	lookupStabilitySig:mean 	-nan
scalar Network.dyn_peer[904] 	lookupHopsSig:mean 	-nan
scalar Network.dyn_peer[905] 	lookupTimeSig:mean 	-nan
scalar Network.dyn_peer[905] 	lookupStabilitySig:mean 	-nan
scalar Network.dyn_peer[905] 	lookupHopsSig:mean 	-nan
scalar Network.dyn_peer[906] 	lookupTimeSig:mean 	-nan
scalar Network.dyn_peer[906] 	lookupStabilitySig:mean 	-nan
scalar Network.dyn_peer[906] 	lookupHopsSig:mean 	-nan
scalar Network.dyn_peer[907] 	lookupTimeSig:mean 	-nan
scalar Network.dyn_peer[907] 	lookupStabilitySig:mean 	-nan
scalar Network.dyn_peer[907] 	lookupHopsSig:mean 	-nan
scalar Network.dyn_peer[908] 	lookupTimeSig:mean 	-nan
scalar Network.dyn_peer[908] 	lookupStabilitySig:mean 	-nan
scalar Network.dyn_peer[908] 	lookupHopsSig:mean 	-nan
scalar Network.dyn_peer[909] 	lookupTimeSig:mean 	-nan
scalar Network.dyn_peer[909] 	lookupStabilitySig:mean 	-nan
scalar Network.dyn_peer[909] 	lookupHopsSig:mean 	-nan
scalar Network.dyn_peer[910] 	lookupTimeSig:mean 	-nan
scalar Network.dyn_peer[910] 	lookupStabilitySig:mean 	-nan
scalar Network.dyn_peer[910] 	lookupHopsSig:mean 	-nan
scalar Network.dyn_peer[911] 	lookupTimeSig:mean 	-nan
scalar Network.dyn_peer[911] 	lookupStabilitySig:mean 	-nan
scalar Network.dyn_peer[911] 	lookupHopsSig:mean 	-nan
scalar Network.dyn_peer[912] 	lookupTimeSig:mean 	-nan
scalar Network.dyn_peer[912] 	lookupStabilitySig:mean 	-nan
scalar Network.dyn_peer[912] 	lookupHopsSig:mean 	-nan
scalar Network.dyn_peer[913] 	lookupTimeSig:mean 	-nan
scalar Network.dyn_peer[913] 	lookupStabilitySig:mean 	-nan
scalar Network.dyn_peer[913] 	lookupHopsSig:mean 	-nan
scalar Network.dyn_peer[914] 	lookupTimeSig:mean 	-nan
scalar Network.dyn_peer[914] 	lookupStabilitySig:mean 	-nan
scalar Network.dyn_peer[914] 	lookupHopsSig:mean 	-nan
scalar Network.dyn_peer[915] 	lookupTimeSig:mean 	-nan
scalar Network.dyn_peer[915] 	lookupStabilitySig:mean 	-nan
scalar Network.dyn_peer[915] 	lookupHopsSig:mean 	-nan
scalar Network.dyn_peer[916] 	lookupTimeSig:mean 	-nan
scalar Network.dyn_peer[916] 	lookupStabilitySig:mean 	-nan
scalar Network.dyn_peer[916] 	lookupHopsSig:mean 	-nan
scalar Network.dyn_peer[917] 	lookupTimeSig:mean 	-nan
scalar Network.dyn_peer[917] 	lookupStabilitySig:mean 	-nan
scalar Network.dyn_peer[917] 	lookupHopsSig:mean 	-nan
scalar Network.dyn_peer[918] 	lookupTimeSig:mean 	-nan
scalar Network.dyn_peer[918] 	lookupStabilitySig:mean 	-nan
scalar Network.dyn_peer[918] 	lookupHopsSig:mean 	-nan
scalar Network.dyn_peer[919] 	lookupTimeSig:mean 	-nan
scalar Network.dyn_peer[919] 	lookupStabilitySig:mean 	-nan
scalar Network.dyn_peer[919] 	lookupHopsSig:mean 	-nan
scalar Network.dyn_peer[920] 	lookupTimeSig:mean 	-nan
scalar Network.dyn_peer[920] 	lookupStabilitySig:mean 	-nan
scalar Network.dyn_peer[920] 	lookupHopsSig:mean 	-nan
scalar Network.dyn_peer[921] 	lookupTimeSig:mean 	-nan
scalar Network.dyn_peer[921] 	lookupStabilitySig:mean 	-nan
scalar Network.dyn_peer[921] 	lookupHopsSig:mean 	-nan
scalar Network.dyn_peer[922] 	lookupTimeSig:mean 	-nan
scalar Network.dyn_peer[922] 	lookupStabilitySig:mean 	-nan
scalar Network.dyn_peer[922] 	lookupHopsSig:mean 	-nan
scalar Network.dyn_peer[923] 	lookupTimeSig:mean 	-nan
scalar Network.dyn_peer[923] 	lookupStabilitySig:mean 	-nan
scalar Network.dyn_peer[923] 	lookupHopsSig:mean 	-nan
scalar Network.dyn_peer[924] 	lookupTimeSig:mean 	-nan
scalar Network.dyn_peer[924] 	lookupStabilitySig:mean 	-nan
scalar Network.dyn_peer[924] 	lookupHopsSig:mean 	-nan
scalar Network.dyn_peer[925] 	lookupTimeSig:mean 	-nan
scalar Network.dyn_peer[925] 	lookupStabilitySig:mean 	-nan
scalar Network.dyn_peer[925] 	lookupHopsSig:mean 	-nan
scalar Network.dyn_peer[926] 	lookupTimeSig:mean 	-nan
scalar Network.dyn_peer[926] 	lookupStabilitySig:mean 	-nan
scalar Network.dyn_peer[926] 	lookupHopsSig:mean 	-nan
scalar Network.dyn_peer[927] 	lookupTimeSig:mean 	-nan
scalar Network.dyn_peer[927] 	lookupStabilitySig:mean 	-nan
scalar Network.dyn_peer[927] 	lookupHopsSig:mean 	-nan
scalar Network.dyn_peer[928] 	lookupTimeSig:mean 	-nan
scalar Network.dyn_peer[928] 	lookupStabilitySig:mean 	-nan
scalar Network.dyn_peer[928] 	lookupHopsSig:mean 	-nan
scalar Network.dyn_peer[929] 	lookupTimeSig:mean 	-nan
scalar Network.dyn_peer[929] 	lookupStabilitySig:mean 	-nan
scalar Network.dyn_peer[929] 	lookupHopsSig:mean 	-nan
scalar Network.dyn_peer[930] 	lookupTimeSig:mean 	-nan
scalar Network.dyn_peer[930] 	lookupStabilitySig:mean 	-nan
scalar Network.dyn_peer[930] 	lookupHopsSig:mean 	-nan
scalar Network.dyn_peer[931] 	lookupTimeSig:mean 	-nan
scalar Network.dyn_peer[931] 	lookupStabilitySig:mean 	-nan
scalar Network.dyn_peer[931] 	lookupHopsSig:mean 	-nan
scalar Network.dyn_peer[932] 	lookupTimeSig:mean 	-nan
scalar Network.dyn_peer[932] 	lookupStabilitySig:mean 	-nan
scalar Network.dyn_peer[932] 	lookupHopsSig:mean 	-nan
scalar Network.dyn_peer[933] 	lookupTimeSig:mean 	-nan
scalar Network.dyn_peer[933] 	lookupStabilitySig:mean 	-nan
scalar Network.dyn_peer[933] 	lookupHopsSig:mean 	-nan
scalar Network.dyn_peer[934] 	lookupTimeSig:mean 	-nan
scalar Network.dyn_peer[934] 	lookupStabilitySig:mean 	-nan
scalar Network.dyn_peer[934] 	lookupHopsSig:mean 	-nan
scalar Network.dyn_peer[935] 	lookupTimeSig:mean 	-nan
scalar Network.dyn_peer[935] 	lookupStabilitySig:mean 	-nan
scalar Network.dyn_peer[935] 	lookupHopsSig:mean 	-nan
scalar Network.dyn_peer[936] 	lookupTimeSig:mean 	-nan
scalar Network.dyn_peer[936] 	lookupStabilitySig:mean 	-nan
scalar Network.dyn_peer[936] 	lookupHopsSig:mean 	-nan
scalar Network.dyn_peer[937] 	lookupTimeSig:mean 	-nan
scalar Network.dyn_peer[937] 	lookupStabilitySig:mean 	-nan
scalar Network.dyn_peer[937] 	lookupHopsSig:mean 	-nan
scalar Network.dyn_peer[938] 	lookupTimeSig:mean 	-nan
scalar Network.dyn_peer[938] 	lookupStabilitySig:mean 	-nan
scalar Network.dyn_peer[938] 	lookupHopsSig:mean 	-nan
scalar Network.dyn_peer[939] 	lookupTimeSig:mean 	-nan
scalar Network.dyn_peer[939] 	lookupStabilitySig:mean 	-nan
scalar Network.dyn_peer[939] 	lookupHopsSig:mean 	-nan
scalar Network.dyn_peer[940] 	lookupTimeSig:mean 	-nan
scalar Network.dyn_peer[940] 	lookupStabilitySig:mean 	-nan
scalar Network.dyn_peer[940] 	lookupHopsSig:mean 	-nan
scalar Network.dyn_peer[941] 	lookupTimeSig:mean 	-nan
scalar Network.dyn_peer[941] 	lookupStabilitySig:mean 	-nan
scalar Network.dyn_peer[941] 	lookupHopsSig:mean 	-nan
scalar Network.dyn_peer[942] 	lookupTimeSig:mean 	-nan
scalar Network.dyn_peer[942] 	lookupStabilitySig:mean 	-nan
scalar Network.dyn_peer[942] 	lookupHopsSig:mean 	-nan
scalar Network.dyn_peer[943] 	lookupTimeSig:mean 	-nan
scalar Network.dyn_peer[943] 	lookupStabilitySig:mean 	-nan
scalar Network.dyn_peer[943] 	lookupHopsSig:mean 	-nan
scalar Network.dyn_peer[944] 	lookupTimeSig:mean 	-nan
scalar Network.dyn_peer[944] 	lookupStabilitySig:mean 	-nan
scalar Network.dyn_peer[944] 	lookupHopsSig:mean 	-nan
scalar Network.dyn_peer[945] 	lookupTimeSig:mean 	-nan
scalar Network.dyn_peer[945] 	lookupStabilitySig:mean 	-nan
scalar Network.dyn_peer[945] 	lookupHopsSig:mean 	-nan
scalar Network.dyn_peer[946] 	lookupTimeSig:mean 	-nan
scalar Network.dyn_peer[946] 	lookupStabilitySig:mean 	-nan
scalar Network.dyn_peer[946] 	lookupHopsSig:mean 	-nan
scalar Network.dyn_peer[947] 	lookupTimeSig:mean 	-nan
scalar Network.dyn_peer[947] 	lookupStabilitySig:mean 	-nan
scalar Network.dyn_peer[947] 	lookupHopsSig:mean 	-nan
scalar Network.dyn_peer[948] 	lookupTimeSig:mean 	-nan
scalar Network.dyn_peer[948] 	lookupStabilitySig:mean 	-nan
scalar Network.dyn_peer[948] 	lookupHopsSig:mean 	-nan
scalar Network.dyn_peer[949] 	lookupTimeSig:mean 	-nan
scalar Network.dyn_peer[949] 	lookupStabilitySig:mean 	-nan
scalar Network.dyn_peer[949] 	lookupHopsSig:mean 	-nan
scalar Network.dyn_peer[950] 	lookupTimeSig:mean 	-nan
scalar Network.dyn_peer[950] 	lookupStabilitySig:mean 	-nan
scalar Network.dyn_peer[950] 	lookupHopsSig:mean 	-nan
scalar Network.dyn_peer[951] 	lookupTimeSig:mean 	-nan
scalar Network.dyn_peer[951] 	lookupStabilitySig:mean 	-nan
scalar Network.dyn_peer[951] 	lookupHopsSig:mean 	-nan
scalar Network.dyn_peer[952] 	lookupTimeSig:mean 	-nan
scalar Network.dyn_peer[952] 	lookupStabilitySig:mean 	-nan
scalar Network.dyn_peer[952] 	lookupHopsSig:mean 	-nan
scalar Network.dyn_peer[953] 	lookupTimeSig:mean 	-nan
scalar Network.dyn_peer[953] 	lookupStabilitySig:mean 	-nan
scalar Network.dyn_peer[953] 	lookupHopsSig:mean 	-nan
scalar Network.dyn_peer[954] 	lookupTimeSig:mean 	-nan
scalar Network.dyn_peer[954] 	lookupStabilitySig:mean 	-nan
scalar Network.dyn_peer[954] 	lookupHopsSig:mean 	-nan
scalar Network.dyn_peer[955] 	lookupTimeSig:mean 	-nan
scalar Network.dyn_peer[955] 	lookupStabilitySig:mean 	-nan
scalar Network.dyn_peer[955] 	lookupHopsSig:mean 	-nan
scalar Network.dyn_peer[956] 	lookupTimeSig:mean 	-nan
scalar Network.dyn_peer[956] 	lookupStabilitySig:mean 	-nan
scalar Network.dyn_peer[956] 	lookupHopsSig:mean 	-nan
scalar Network.dyn_peer[957] 	lookupTimeSig:mean 	-nan
scalar Network.dyn_peer[957] 	lookupStabilitySig:mean 	-nan
scalar Network.dyn_peer[957] 	lookupHopsSig:mean 	-nan
scalar Network.dyn_peer[958] 	lookupTimeSig:mean 	-nan
scalar Network.dyn_peer[958] 	lookupStabilitySig:mean 	-nan
scalar Network.dyn_peer[958] 	lookupHopsSig:mean 	-nan
scalar Network.dyn_peer[959] 	lookupTimeSig:mean 	-nan
scalar Network.dyn_peer[959] 	lookupStabilitySig:mean 	-nan
scalar Network.dyn_peer[959] 	lookupHopsSig:mean 	-nan
scalar Network.dyn_peer[960] 	lookupTimeSig:mean 	-nan
scalar Network.dyn_peer[960] 	lookupStabilitySig:mean 	-nan
scalar Network.dyn_peer[960] 	lookupHopsSig:mean 	-nan
scalar Network.dyn_peer[961] 	lookupTimeSig:mean 	-nan
scalar Network.dyn_peer[961] 	lookupStabilitySig:mean 	-nan
scalar Network.dyn_peer[961] 	lookupHopsSig:mean 	-nan
scalar Network.dyn_peer[962] 	lookupTimeSig:mean 	-nan
scalar Network.dyn_peer[962] 	lookupStabilitySig:mean 	-nan
scalar Network.dyn_peer[962] 	lookupHopsSig:mean 	-nan
scalar Network.dyn_peer[963] 	lookupTimeSig:mean 	-nan
scalar Network.dyn_peer[963] 	lookupStabilitySig:mean 	-nan
scalar Network.dyn_peer[963] 	lookupHopsSig:mean 	-nan
scalar Network.dyn_peer[964] 	lookupTimeSig:mean 	-nan
scalar Network.dyn_peer[964] 	lookupStabilitySig:mean 	-nan
scalar Network.dyn_peer[964] 	lookupHopsSig:mean 	-nan
scalar Network.dyn_peer[965] 	lookupTimeSig:mean 	-nan
scalar Network.dyn_peer[965] 	lookupStabilitySig:mean 	-nan
scalar Network.dyn_peer[965] 	lookupHopsSig:mean 	-nan
scalar Network.dyn_peer[966] 	lookupTimeSig:mean 	-nan
scalar Network.dyn_peer[966] 	lookupStabilitySig:mean 	-nan
scalar Network.dyn_peer[966] 	lookupHopsSig:mean 	-nan
scalar Network.dyn_peer[967] 	lookupTimeSig:mean 	-nan
scalar Network.dyn_peer[967] 	lookupStabilitySig:mean 	-nan
scalar Network.dyn_peer[967] 	lookupHopsSig:mean 	-nan
scalar Network.dyn_peer[968] 	lookupTimeSig:mean 	-nan
scalar Network.dyn_peer[968] 	lookupStabilitySig:mean 	-nan
scalar Network.dyn_peer[968] 	lookupHopsSig:mean 	-nan
scalar Network.dyn_peer[969] 	lookupTimeSig:mean 	-nan
scalar Network.dyn_peer[969] 	lookupStabilitySig:mean 	-nan
scalar Network.dyn_peer[969] 	lookupHopsSig:mean 	-nan
scalar Network.dyn_peer[970] 	lookupTimeSig:mean 	-nan
scalar Network.dyn_peer[970] 	lookupStabilitySig:mean 	-nan
scalar Network.dyn_peer[970] 	lookupHopsSig:mean 	-nan
scalar Network.dyn_peer[971] 	lookupTimeSig:mean 	-nan
scalar Network.dyn_peer[971] 	lookupStabilitySig:mean 	-nan
scalar Network.dyn_peer[971] 	lookupHopsSig:mean 	-nan
scalar Network.dyn_peer[972] 	lookupTimeSig:mean 	-nan
scalar Network.dyn_peer[972] 	lookupStabilitySig:mean 	-nan
scalar Network.dyn_peer[972] 	lookupHopsSig:mean 	-nan
scalar Network.dyn_peer[973] 	lookupTimeSig:mean 	-nan
scalar Network.dyn_peer[973] 	lookupStabilitySig:mean 	-nan
scalar Network.dyn_peer[973] 	lookupHopsSig:mean 	-nan
scalar Network.dyn_peer[974] 	lookupTimeSig:mean 	-nan
scalar Network.dyn_peer[974] 	lookupStabilitySig:mean 	-nan
scalar Network.dyn_peer[974] 	lookupHopsSig:mean 	-nan
scalar Network.dyn_peer[975] 	lookupTimeSig:mean 	-nan
scalar Network.dyn_peer[975] 	lookupStabilitySig:mean 	-nan
scalar Network.dyn_peer[975] 	lookupHopsSig:mean 	-nan
scalar Network.dyn_peer[976] 	lookupTimeSig:mean 	-nan
scalar Network.dyn_peer[976] 	lookupStabilitySig:mean 	-nan
scalar Network.dyn_peer[976] 	lookupHopsSig:mean 	-nan
scalar Network.dyn_peer[977] 	lookupTimeSig:mean 	-nan
scalar Network.dyn_peer[977] 	lookupStabilitySig:mean 	-nan
scalar Network.dyn_peer[977] 	lookupHopsSig:mean 	-nan
scalar Network.dyn_peer[978] 	lookupTimeSig:mean 	-nan
scalar Network.dyn_peer[978] 	lookupStabilitySig:mean 	-nan
scalar Network.dyn_peer[978] 	lookupHopsSig:mean 	-nan
scalar Network.dyn_peer[979] 	lookupTimeSig:mean 	-nan
scalar Network.dyn_peer[979] 	lookupStabilitySig:mean 	-nan
scalar Network.dyn_peer[979] 	lookupHopsSig:mean 	-nan
scalar Network.dyn_peer[980] 	lookupTimeSig:mean 	-nan
scalar Network.dyn_peer[980] 	lookupStabilitySig:mean 	-nan
scalar Network.dyn_peer[980] 	lookupHopsSig:mean 	-nan
scalar Network.dyn_peer[981] 	lookupTimeSig:mean 	-nan
scalar Network.dyn_peer[981] 	lookupStabilitySig:mean 	-nan
scalar Network.dyn_peer[981] 	lookupHopsSig:mean 	-nan
scalar Network.dyn_peer[982] 	lookupTimeSig:mean 	-nan
scalar Network.dyn_peer[982] 	lookupStabilitySig:mean 	-nan
scalar Network.dyn_peer[982] 	lookupHopsSig:mean 	-nan
scalar Network.dyn_peer[983] 	lookupTimeSig:mean 	-nan
scalar Network.dyn_peer[983] 	lookupStabilitySig:mean 	-nan
scalar Network.dyn_peer[983] 	lookupHopsSig:mean 	-nan
scalar Network.dyn_peer[984] 	lookupTimeSig:mean 	-nan
scalar Network.dyn_peer[984] 	lookupStabilitySig:mean 	-nan
scalar Network.dyn_peer[984] 	lookupHopsSig:mean 	-nan
scalar Network.dyn_peer[985] 	lookupTimeSig:mean 	-nan
scalar Network.dyn_peer[985] 	lookupStabilitySig:mean 	-nan
scalar Network.dyn_peer[985] 	lookupHopsSig:mean 	-nan
scalar Network.dyn_peer[986] 	lookupTimeSig:mean 	-nan
scalar Network.dyn_peer[986] 	lookupStabilitySig:mean 	-nan
scalar Network.dyn_peer[986] 	lookupHopsSig:mean 	-nan
scalar Network.dyn_peer[987] 	lookupTimeSig:mean 	-nan
scalar Network.dyn_peer[987] 	lookupStabilitySig:mean 	-nan
scalar Network.dyn_peer[987] 	lookupHopsSig:mean 	-nan
scalar Network.dyn_peer[988] 	lookupTimeSig:mean 	-nan
scalar Network.dyn_peer[988] 	lookupStabilitySig:mean 	-nan
scalar Network.dyn_peer[988] 	lookupHopsSig:mean 	-nan
scalar Network.dyn_peer[989] 	lookupTimeSig:mean 	-nan
scalar Network.dyn_peer[989] 	lookupStabilitySig:mean 	-nan
scalar Network.dyn_peer[989] 	lookupHopsSig:mean 	-nan
scalar Network.dyn_peer[990] 	lookupTimeSig:mean 	-nan
scalar Network.dyn_peer[990] 	lookupStabilitySig:mean 	-nan
scalar Network.dyn_peer[990] 	lookupHopsSig:mean 	-nan
scalar Network.dyn_peer[991] 	lookupTimeSig:mean 	-nan
scalar Network.dyn_peer[991] 	lookupStabilitySig:mean 	-nan
scalar Network.dyn_peer[991] 	lookupHopsSig:mean 	-nan
scalar Network.dyn_peer[992] 	lookupTimeSig:mean 	-nan
scalar Network.dyn_peer[992] 	lookupStabilitySig:mean 	-nan
scalar Network.dyn_peer[992] 	lookupHopsSig:mean 	-nan
scalar Network.dyn_peer[993] 	lookupTimeSig:mean 	-nan
scalar Network.dyn_peer[993] 	lookupStabilitySig:mean 	-nan
scalar Network.dyn_peer[993] 	lookupHopsSig:mean 	-nan
scalar Network.dyn_peer[994] 	lookupTimeSig:mean 	-nan
scalar Network.dyn_peer[994] 	lookupStabilitySig:mean 	-nan
scalar Network.dyn_peer[994] 	lookupHopsSig:mean 	-nan
scalar Network.dyn_peer[995] 	lookupTimeSig:mean 	-nan
scalar Network.dyn_peer[995] 	lookupStabilitySig:mean 	-nan
scalar Network.dyn_peer[995] 	lookupHopsSig:mean 	-nan
scalar Network.dyn_peer[996] 	lookupTimeSig:mean 	-nan
scalar Network.dyn_peer[996] 	lookupStabilitySig:mean 	-nan
scalar Network.dyn_peer[996] 	lookupHopsSig:mean 	-nan
scalar Network.dyn_peer[997] 	lookupTimeSig:mean 	-nan
scalar Network.dyn_peer[997] 	lookupStabilitySig:mean 	-nan
scalar Network.dyn_peer[997] 	lookupHopsSig:mean 	-nan
scalar Network.dyn_peer[998] 	lookupTimeSig:mean 	-nan
scalar Network.dyn_peer[998] 	lookupStabilitySig:mean 	-nan
scalar Network.dyn_peer[998] 	lookupHopsSig:mean 	-nan
scalar Network.dyn_peer[999] 	lookupTimeSig:mean 	-nan
scalar Network.dyn_peer[999] 	lookupStabilitySig:mean 	-nan
scalar Network.dyn_peer[999] 	lookupHopsSig:mean 	-nan
scalar Network.churner 	inGoingSizeSig:mean 	149.00332225914
