version 2
run Stability2-327-20130526-00:55:39-26640
attr configname Stability2
attr datetime 20130526-00:55:39
attr experiment Stability2
attr inifile omnetpp.ini
attr iterationvars $0=1000
attr iterationvars2 "$0=1000, $repetition=27"
attr measurement $0=1000
attr network Network
attr processid 26640
attr repetition 27
attr replication #27
attr resultdir results
attr runnumber 327
attr seedset 327

scalar Network.dyn_peer[0] 	lookupTimeSig:mean 	2.3666666666667
scalar Network.dyn_peer[0] 	lookupStabilitySig:mean 	0.47008914717784
scalar Network.dyn_peer[0] 	lookupHopsSig:mean 	22.833333333333
scalar Network.dyn_peer[1] 	lookupTimeSig:mean 	2.925
scalar Network.dyn_peer[1] 	lookupStabilitySig:mean 	0.60370084457099
scalar Network.dyn_peer[1] 	lookupHopsSig:mean 	28.5
scalar Network.dyn_peer[2] 	lookupTimeSig:mean 	1.7333333333333
scalar Network.dyn_peer[2] 	lookupStabilitySig:mean 	0.067690054575602
scalar Network.dyn_peer[2] 	lookupHopsSig:mean 	16.666666666667
scalar Network.dyn_peer[3] 	lookupTimeSig:mean 	1.875
scalar Network.dyn_peer[3] 	lookupStabilitySig:mean 	0.27549638971686
scalar Network.dyn_peer[3] 	lookupHopsSig:mean 	18
scalar Network.dyn_peer[4] 	lookupTimeSig:mean 	1.7875
scalar Network.dyn_peer[4] 	lookupStabilitySig:mean 	0.71798300213413
scalar Network.dyn_peer[4] 	lookupHopsSig:mean 	17
scalar Network.dyn_peer[5] 	lookupTimeSig:mean 	1.7
scalar Network.dyn_peer[5] 	lookupStabilitySig:mean 	0.28364197909832
scalar Network.dyn_peer[5] 	lookupHopsSig:mean 	16.333333333333
scalar Network.dyn_peer[6] 	lookupTimeSig:mean 	1.6
scalar Network.dyn_peer[6] 	lookupStabilitySig:mean 	0.096892952919006
scalar Network.dyn_peer[6] 	lookupHopsSig:mean 	15.333333333333
scalar Network.dyn_peer[7] 	lookupTimeSig:mean 	1.5833333333333
scalar Network.dyn_peer[7] 	lookupStabilitySig:mean 	0.63297118091335
scalar Network.dyn_peer[7] 	lookupHopsSig:mean 	15
scalar Network.dyn_peer[8] 	lookupTimeSig:mean 	2.475
scalar Network.dyn_peer[8] 	lookupStabilitySig:mean 	0.82409959589131
scalar Network.dyn_peer[8] 	lookupHopsSig:mean 	24
scalar Network.dyn_peer[9] 	lookupTimeSig:mean 	1.675
scalar Network.dyn_peer[9] 	lookupStabilitySig:mean 	0.49224636889994
scalar Network.dyn_peer[9] 	lookupHopsSig:mean 	16
scalar Network.dyn_peer[10] 	lookupTimeSig:mean 	2.0875
scalar Network.dyn_peer[10] 	lookupStabilitySig:mean 	0.76863631856395
scalar Network.dyn_peer[10] 	lookupHopsSig:mean 	20
scalar Network.dyn_peer[11] 	lookupTimeSig:mean 	1.7
scalar Network.dyn_peer[11] 	lookupStabilitySig:mean 	0.26386403106153
scalar Network.dyn_peer[11] 	lookupHopsSig:mean 	16.25
scalar Network.dyn_peer[12] 	lookupTimeSig:mean 	1.75
scalar Network.dyn_peer[12] 	lookupStabilitySig:mean 	0.45815506267051
scalar Network.dyn_peer[12] 	lookupHopsSig:mean 	16.666666666667
scalar Network.dyn_peer[13] 	lookupTimeSig:mean 	1.3
scalar Network.dyn_peer[13] 	lookupStabilitySig:mean 	0.54791968408972
scalar Network.dyn_peer[13] 	lookupHopsSig:mean 	12.166666666667
scalar Network.dyn_peer[14] 	lookupTimeSig:mean 	1.9285714285714
scalar Network.dyn_peer[14] 	lookupStabilitySig:mean 	0.76929488192712
scalar Network.dyn_peer[14] 	lookupHopsSig:mean 	18.428571428571
scalar Network.dyn_peer[15] 	lookupTimeSig:mean 	1.6666666666667
scalar Network.dyn_peer[15] 	lookupStabilitySig:mean 	0.50190613356729
scalar Network.dyn_peer[15] 	lookupHopsSig:mean 	15.833333333333
scalar Network.dyn_peer[16] 	lookupTimeSig:mean 	1.5428571428571
scalar Network.dyn_peer[16] 	lookupStabilitySig:mean 	0.54778819531202
scalar Network.dyn_peer[16] 	lookupHopsSig:mean 	14.571428571429
scalar Network.dyn_peer[17] 	lookupTimeSig:mean 	1.78
scalar Network.dyn_peer[17] 	lookupStabilitySig:mean 	0.54744721800089
scalar Network.dyn_peer[17] 	lookupHopsSig:mean 	17
scalar Network.dyn_peer[18] 	lookupTimeSig:mean 	1.5375
scalar Network.dyn_peer[18] 	lookupStabilitySig:mean 	0.5814445251599
scalar Network.dyn_peer[18] 	lookupHopsSig:mean 	14.5
scalar Network.dyn_peer[19] 	lookupTimeSig:mean 	2.06
scalar Network.dyn_peer[19] 	lookupStabilitySig:mean 	0.74197417111136
scalar Network.dyn_peer[19] 	lookupHopsSig:mean 	19.8
scalar Network.dyn_peer[20] 	lookupTimeSig:mean 	1.025
scalar Network.dyn_peer[20] 	lookupStabilitySig:mean 	0.35535714402795
scalar Network.dyn_peer[20] 	lookupHopsSig:mean 	9.5
scalar Network.dyn_peer[21] 	lookupTimeSig:mean 	2.58
scalar Network.dyn_peer[21] 	lookupStabilitySig:mean 	0.54848895519972
scalar Network.dyn_peer[21] 	lookupHopsSig:mean 	25
scalar Network.dyn_peer[22] 	lookupTimeSig:mean 	2.3666666666667
scalar Network.dyn_peer[22] 	lookupStabilitySig:mean 	0.57460317512353
scalar Network.dyn_peer[22] 	lookupHopsSig:mean 	23
scalar Network.dyn_peer[23] 	lookupTimeSig:mean 	1.3285714285714
scalar Network.dyn_peer[23] 	lookupStabilitySig:mean 	0.5315502671791
scalar Network.dyn_peer[23] 	lookupHopsSig:mean 	12.428571428571
scalar Network.dyn_peer[24] 	lookupTimeSig:mean 	2.05
scalar Network.dyn_peer[24] 	lookupStabilitySig:mean 	0.53066908754408
scalar Network.dyn_peer[24] 	lookupHopsSig:mean 	19.75
scalar Network.dyn_peer[25] 	lookupTimeSig:mean 	1.9
scalar Network.dyn_peer[25] 	lookupStabilitySig:mean 	0.46580227352679
scalar Network.dyn_peer[25] 	lookupHopsSig:mean 	18.2
scalar Network.dyn_peer[26] 	lookupTimeSig:mean 	1.8
scalar Network.dyn_peer[26] 	lookupStabilitySig:mean 	0.63516968799134
scalar Network.dyn_peer[26] 	lookupHopsSig:mean 	17.166666666667
scalar Network.dyn_peer[27] 	lookupTimeSig:mean 	1.64
scalar Network.dyn_peer[27] 	lookupStabilitySig:mean 	0.44751265235245
scalar Network.dyn_peer[27] 	lookupHopsSig:mean 	15.6
scalar Network.dyn_peer[28] 	lookupTimeSig:mean 	3.5
scalar Network.dyn_peer[28] 	lookupStabilitySig:mean 	0.62767116601268
scalar Network.dyn_peer[28] 	lookupHopsSig:mean 	34.333333333333
scalar Network.dyn_peer[29] 	lookupTimeSig:mean 	2.25
scalar Network.dyn_peer[29] 	lookupStabilitySig:mean 	0.49117647111416
scalar Network.dyn_peer[29] 	lookupHopsSig:mean 	22
scalar Network.dyn_peer[30] 	lookupTimeSig:mean 	1.2777777777778
scalar Network.dyn_peer[30] 	lookupStabilitySig:mean 	0.70661276609947
scalar Network.dyn_peer[30] 	lookupHopsSig:mean 	11.888888888889
scalar Network.dyn_peer[31] 	lookupTimeSig:mean 	1.6666666666667
scalar Network.dyn_peer[31] 	lookupStabilitySig:mean 	0.67496932235857
scalar Network.dyn_peer[31] 	lookupHopsSig:mean 	15.833333333333
scalar Network.dyn_peer[32] 	lookupTimeSig:mean 	2.375
scalar Network.dyn_peer[32] 	lookupStabilitySig:mean 	0.33349836431444
scalar Network.dyn_peer[32] 	lookupHopsSig:mean 	23
scalar Network.dyn_peer[33] 	lookupTimeSig:mean 	0.78
scalar Network.dyn_peer[33] 	lookupStabilitySig:mean 	0.39378183484077
scalar Network.dyn_peer[33] 	lookupHopsSig:mean 	7
scalar Network.dyn_peer[34] 	lookupTimeSig:mean 	1.2230769230769
scalar Network.dyn_peer[34] 	lookupStabilitySig:mean 	0.76131528444015
scalar Network.dyn_peer[34] 	lookupHopsSig:mean 	11.307692307692
scalar Network.dyn_peer[35] 	lookupTimeSig:mean 	3.02
scalar Network.dyn_peer[35] 	lookupStabilitySig:mean 	0.34230478219688
scalar Network.dyn_peer[35] 	lookupHopsSig:mean 	29.4
scalar Network.dyn_peer[36] 	lookupTimeSig:mean 	1.7857142857143
scalar Network.dyn_peer[36] 	lookupStabilitySig:mean 	0.72452965006232
scalar Network.dyn_peer[36] 	lookupHopsSig:mean 	17
scalar Network.dyn_peer[37] 	lookupTimeSig:mean 	2.9666666666667
scalar Network.dyn_peer[37] 	lookupStabilitySig:mean 	0.78482233236233
scalar Network.dyn_peer[37] 	lookupHopsSig:mean 	29
scalar Network.dyn_peer[38] 	lookupTimeSig:mean 	1.8714285714286
scalar Network.dyn_peer[38] 	lookupStabilitySig:mean 	0.60160566320909
scalar Network.dyn_peer[38] 	lookupHopsSig:mean 	17.857142857143
scalar Network.dyn_peer[39] 	lookupTimeSig:mean 	1.7111111111111
scalar Network.dyn_peer[39] 	lookupStabilitySig:mean 	0.70151536099406
scalar Network.dyn_peer[39] 	lookupHopsSig:mean 	16.222222222222
scalar Network.dyn_peer[40] 	lookupTimeSig:mean 	1.3166666666667
scalar Network.dyn_peer[40] 	lookupStabilitySig:mean 	0.57713837642223
scalar Network.dyn_peer[40] 	lookupHopsSig:mean 	12.333333333333
scalar Network.dyn_peer[41] 	lookupTimeSig:mean 	2.6333333333333
scalar Network.dyn_peer[41] 	lookupStabilitySig:mean 	0.68516815081239
scalar Network.dyn_peer[41] 	lookupHopsSig:mean 	25.5
scalar Network.dyn_peer[42] 	lookupTimeSig:mean 	1.65
scalar Network.dyn_peer[42] 	lookupStabilitySig:mean 	0.70411014944936
scalar Network.dyn_peer[42] 	lookupHopsSig:mean 	15.666666666667
scalar Network.dyn_peer[43] 	lookupTimeSig:mean 	1.15
scalar Network.dyn_peer[43] 	lookupStabilitySig:mean 	-0.3125
scalar Network.dyn_peer[43] 	lookupHopsSig:mean 	11
scalar Network.dyn_peer[44] 	lookupTimeSig:mean 	1.37
scalar Network.dyn_peer[44] 	lookupStabilitySig:mean 	0.84947198182344
scalar Network.dyn_peer[44] 	lookupHopsSig:mean 	12.8
scalar Network.dyn_peer[45] 	lookupTimeSig:mean 	2.775
scalar Network.dyn_peer[45] 	lookupStabilitySig:mean 	0.67133111134171
scalar Network.dyn_peer[45] 	lookupHopsSig:mean 	27
scalar Network.dyn_peer[46] 	lookupTimeSig:mean 	1.96
scalar Network.dyn_peer[46] 	lookupStabilitySig:mean 	0.4600519746542
scalar Network.dyn_peer[46] 	lookupHopsSig:mean 	18.8
scalar Network.dyn_peer[47] 	lookupTimeSig:mean 	2.02
scalar Network.dyn_peer[47] 	lookupStabilitySig:mean 	0.88809997979552
scalar Network.dyn_peer[47] 	lookupHopsSig:mean 	19.4
scalar Network.dyn_peer[48] 	lookupTimeSig:mean 	2
scalar Network.dyn_peer[48] 	lookupStabilitySig:mean 	0.63665571343154
scalar Network.dyn_peer[48] 	lookupHopsSig:mean 	19.25
scalar Network.dyn_peer[49] 	lookupTimeSig:mean 	1.96
scalar Network.dyn_peer[49] 	lookupStabilitySig:mean 	0.47953286841512
scalar Network.dyn_peer[49] 	lookupHopsSig:mean 	18.8
scalar Network.dyn_peer[50] 	lookupTimeSig:mean 	1.6428571428571
scalar Network.dyn_peer[50] 	lookupStabilitySig:mean 	0.59149131657822
scalar Network.dyn_peer[50] 	lookupHopsSig:mean 	15.571428571429
scalar Network.dyn_peer[51] 	lookupTimeSig:mean 	1.66
scalar Network.dyn_peer[51] 	lookupStabilitySig:mean 	0.36119957268238
scalar Network.dyn_peer[51] 	lookupHopsSig:mean 	15.8
scalar Network.dyn_peer[52] 	lookupTimeSig:mean 	1.7
scalar Network.dyn_peer[52] 	lookupStabilitySig:mean 	0.80432950185301
scalar Network.dyn_peer[52] 	lookupHopsSig:mean 	16.111111111111
scalar Network.dyn_peer[53] 	lookupTimeSig:mean 	1.54
scalar Network.dyn_peer[53] 	lookupStabilitySig:mean 	0.44594295900315
scalar Network.dyn_peer[53] 	lookupHopsSig:mean 	14.6
scalar Network.dyn_peer[54] 	lookupTimeSig:mean 	1.5833333333333
scalar Network.dyn_peer[54] 	lookupStabilitySig:mean 	0.54464362965276
scalar Network.dyn_peer[54] 	lookupHopsSig:mean 	15
scalar Network.dyn_peer[55] 	lookupTimeSig:mean 	1.65
scalar Network.dyn_peer[55] 	lookupStabilitySig:mean 	0.79306647740304
scalar Network.dyn_peer[55] 	lookupHopsSig:mean 	15.75
scalar Network.dyn_peer[56] 	lookupTimeSig:mean 	1.975
scalar Network.dyn_peer[56] 	lookupStabilitySig:mean 	0.60561139509082
scalar Network.dyn_peer[56] 	lookupHopsSig:mean 	19
scalar Network.dyn_peer[57] 	lookupTimeSig:mean 	2.15
scalar Network.dyn_peer[57] 	lookupStabilitySig:mean 	0.3431017678231
scalar Network.dyn_peer[57] 	lookupHopsSig:mean 	20.75
scalar Network.dyn_peer[58] 	lookupTimeSig:mean 	1.92
scalar Network.dyn_peer[58] 	lookupStabilitySig:mean 	0.44721202626824
scalar Network.dyn_peer[58] 	lookupHopsSig:mean 	18.4
scalar Network.dyn_peer[59] 	lookupTimeSig:mean 	1.6666666666667
scalar Network.dyn_peer[59] 	lookupStabilitySig:mean 	0.62738830968738
scalar Network.dyn_peer[59] 	lookupHopsSig:mean 	15.833333333333
scalar Network.dyn_peer[60] 	lookupTimeSig:mean 	1.78
scalar Network.dyn_peer[60] 	lookupStabilitySig:mean 	0.51015299176797
scalar Network.dyn_peer[60] 	lookupHopsSig:mean 	17
scalar Network.dyn_peer[61] 	lookupTimeSig:mean 	1.825
scalar Network.dyn_peer[61] 	lookupStabilitySig:mean 	0.42964450083673
scalar Network.dyn_peer[61] 	lookupHopsSig:mean 	17.5
scalar Network.dyn_peer[62] 	lookupTimeSig:mean 	2.225
scalar Network.dyn_peer[62] 	lookupStabilitySig:mean 	0.87061054073274
scalar Network.dyn_peer[62] 	lookupHopsSig:mean 	21.375
scalar Network.dyn_peer[63] 	lookupTimeSig:mean 	1.6272727272727
scalar Network.dyn_peer[63] 	lookupStabilitySig:mean 	0.74244516309012
scalar Network.dyn_peer[63] 	lookupHopsSig:mean 	15.363636363636
scalar Network.dyn_peer[64] 	lookupTimeSig:mean 	1.7818181818182
scalar Network.dyn_peer[64] 	lookupStabilitySig:mean 	0.89652171011337
scalar Network.dyn_peer[64] 	lookupHopsSig:mean 	16.909090909091
scalar Network.dyn_peer[65] 	lookupTimeSig:mean 	1.4266666666667
scalar Network.dyn_peer[65] 	lookupStabilitySig:mean 	0.96529237038145
scalar Network.dyn_peer[65] 	lookupHopsSig:mean 	13.333333333333
scalar Network.dyn_peer[66] 	lookupTimeSig:mean 	1.8545454545455
scalar Network.dyn_peer[66] 	lookupStabilitySig:mean 	0.91604577013376
scalar Network.dyn_peer[66] 	lookupHopsSig:mean 	17.636363636364
scalar Network.dyn_peer[67] 	lookupTimeSig:mean 	2
scalar Network.dyn_peer[67] 	lookupStabilitySig:mean 	0.74817141536623
scalar Network.dyn_peer[67] 	lookupHopsSig:mean 	19.2
scalar Network.dyn_peer[68] 	lookupTimeSig:mean 	1.9555555555556
scalar Network.dyn_peer[68] 	lookupStabilitySig:mean 	0.78110943620818
scalar Network.dyn_peer[68] 	lookupHopsSig:mean 	18.666666666667
scalar Network.dyn_peer[69] 	lookupTimeSig:mean 	1.25
scalar Network.dyn_peer[69] 	lookupStabilitySig:mean 	0.33425846882164
scalar Network.dyn_peer[69] 	lookupHopsSig:mean 	11.75
scalar Network.dyn_peer[70] 	lookupTimeSig:mean 	1.35
scalar Network.dyn_peer[70] 	lookupStabilitySig:mean 	0.24029485881329
scalar Network.dyn_peer[70] 	lookupHopsSig:mean 	12.75
scalar Network.dyn_peer[71] 	lookupTimeSig:mean 	2.34
scalar Network.dyn_peer[71] 	lookupStabilitySig:mean 	0.46844017356634
scalar Network.dyn_peer[71] 	lookupHopsSig:mean 	22.6
scalar Network.dyn_peer[72] 	lookupTimeSig:mean 	2.0142857142857
scalar Network.dyn_peer[72] 	lookupStabilitySig:mean 	0.819474708555
scalar Network.dyn_peer[72] 	lookupHopsSig:mean 	19.285714285714
scalar Network.dyn_peer[73] 	lookupTimeSig:mean 	2.44
scalar Network.dyn_peer[73] 	lookupStabilitySig:mean 	0.61013526171446
scalar Network.dyn_peer[73] 	lookupHopsSig:mean 	23.6
scalar Network.dyn_peer[74] 	lookupTimeSig:mean 	1.42
scalar Network.dyn_peer[74] 	lookupStabilitySig:mean 	0.34028302580118
scalar Network.dyn_peer[74] 	lookupHopsSig:mean 	13.4
scalar Network.dyn_peer[75] 	lookupTimeSig:mean 	4
scalar Network.dyn_peer[75] 	lookupStabilitySig:mean 	0.53648397326469
scalar Network.dyn_peer[75] 	lookupHopsSig:mean 	39.333333333333
scalar Network.dyn_peer[76] 	lookupTimeSig:mean 	3.3666666666667
scalar Network.dyn_peer[76] 	lookupStabilitySig:mean 	0.80206643541654
scalar Network.dyn_peer[76] 	lookupHopsSig:mean 	33
scalar Network.dyn_peer[77] 	lookupTimeSig:mean 	1.8875
scalar Network.dyn_peer[77] 	lookupStabilitySig:mean 	0.68536950298585
scalar Network.dyn_peer[77] 	lookupHopsSig:mean 	18
scalar Network.dyn_peer[78] 	lookupTimeSig:mean 	1.64
scalar Network.dyn_peer[78] 	lookupStabilitySig:mean 	0.34625524282455
scalar Network.dyn_peer[78] 	lookupHopsSig:mean 	15.6
scalar Network.dyn_peer[79] 	lookupTimeSig:mean 	2.1833333333333
scalar Network.dyn_peer[79] 	lookupStabilitySig:mean 	0.90851976862177
scalar Network.dyn_peer[79] 	lookupHopsSig:mean 	21
scalar Network.dyn_peer[80] 	lookupTimeSig:mean 	1.175
scalar Network.dyn_peer[80] 	lookupStabilitySig:mean 	0.2652389369905
scalar Network.dyn_peer[80] 	lookupHopsSig:mean 	11
scalar Network.dyn_peer[81] 	lookupTimeSig:mean 	1.4285714285714
scalar Network.dyn_peer[81] 	lookupStabilitySig:mean 	0.63120456678527
scalar Network.dyn_peer[81] 	lookupHopsSig:mean 	13.428571428571
scalar Network.dyn_peer[82] 	lookupTimeSig:mean 	2.4
scalar Network.dyn_peer[82] 	lookupStabilitySig:mean 	0.91680893755984
scalar Network.dyn_peer[82] 	lookupHopsSig:mean 	23.125
scalar Network.dyn_peer[83] 	lookupTimeSig:mean 	1.41
scalar Network.dyn_peer[83] 	lookupStabilitySig:mean 	0.95274358200841
scalar Network.dyn_peer[83] 	lookupHopsSig:mean 	13.2
scalar Network.dyn_peer[84] 	lookupTimeSig:mean 	2.68
scalar Network.dyn_peer[84] 	lookupStabilitySig:mean 	0.87304497947916
scalar Network.dyn_peer[84] 	lookupHopsSig:mean 	26
scalar Network.dyn_peer[85] 	lookupTimeSig:mean 	2
scalar Network.dyn_peer[85] 	lookupStabilitySig:mean 	0.66523114126176
scalar Network.dyn_peer[85] 	lookupHopsSig:mean 	19.25
scalar Network.dyn_peer[86] 	lookupTimeSig:mean 	2
scalar Network.dyn_peer[86] 	lookupStabilitySig:mean 	0.2080124123022
scalar Network.dyn_peer[86] 	lookupHopsSig:mean 	19.25
scalar Network.dyn_peer[87] 	lookupTimeSig:mean 	2.35
scalar Network.dyn_peer[87] 	lookupStabilitySig:mean 	0.51867458969355
scalar Network.dyn_peer[87] 	lookupHopsSig:mean 	22.666666666667
scalar Network.dyn_peer[88] 	lookupTimeSig:mean 	1.7
scalar Network.dyn_peer[88] 	lookupStabilitySig:mean 	0.94234582682839
scalar Network.dyn_peer[88] 	lookupHopsSig:mean 	16.125
scalar Network.dyn_peer[89] 	lookupTimeSig:mean 	1.7166666666667
scalar Network.dyn_peer[89] 	lookupStabilitySig:mean 	0.49953982265045
scalar Network.dyn_peer[89] 	lookupHopsSig:mean 	16.333333333333
scalar Network.dyn_peer[90] 	lookupTimeSig:mean 	1.3166666666667
scalar Network.dyn_peer[90] 	lookupStabilitySig:mean 	0.4215821698308
scalar Network.dyn_peer[90] 	lookupHopsSig:mean 	12.333333333333
scalar Network.dyn_peer[91] 	lookupTimeSig:mean 	1.8
scalar Network.dyn_peer[91] 	lookupStabilitySig:mean 	0.72115940339863
scalar Network.dyn_peer[91] 	lookupHopsSig:mean 	17.1
scalar Network.dyn_peer[92] 	lookupTimeSig:mean 	3.2666666666667
scalar Network.dyn_peer[92] 	lookupStabilitySig:mean 	0.67390505721172
scalar Network.dyn_peer[92] 	lookupHopsSig:mean 	32
scalar Network.dyn_peer[93] 	lookupTimeSig:mean 	2.1333333333333
scalar Network.dyn_peer[93] 	lookupStabilitySig:mean 	0.19360269109408
scalar Network.dyn_peer[93] 	lookupHopsSig:mean 	20.666666666667
scalar Network.dyn_peer[94] 	lookupTimeSig:mean 	2.1
scalar Network.dyn_peer[94] 	lookupStabilitySig:mean 	0.96964860690059
scalar Network.dyn_peer[94] 	lookupHopsSig:mean 	20.083333333333
scalar Network.dyn_peer[95] 	lookupTimeSig:mean 	1.35
scalar Network.dyn_peer[95] 	lookupStabilitySig:mean 	0.68958101171302
scalar Network.dyn_peer[95] 	lookupHopsSig:mean 	12.625
scalar Network.dyn_peer[96] 	lookupTimeSig:mean 	2.5
scalar Network.dyn_peer[96] 	lookupStabilitySig:mean 	0.96137252863264
scalar Network.dyn_peer[96] 	lookupHopsSig:mean 	24.125
scalar Network.dyn_peer[97] 	lookupTimeSig:mean 	0.925
scalar Network.dyn_peer[97] 	lookupStabilitySig:mean 	0.31002436764538
scalar Network.dyn_peer[97] 	lookupHopsSig:mean 	8.5
scalar Network.dyn_peer[98] 	lookupTimeSig:mean 	3.65
scalar Network.dyn_peer[98] 	lookupStabilitySig:mean 	0.37358491122723
scalar Network.dyn_peer[98] 	lookupHopsSig:mean 	36
scalar Network.dyn_peer[99] 	lookupTimeSig:mean 	3.375
scalar Network.dyn_peer[99] 	lookupStabilitySig:mean 	0.92831392842345
scalar Network.dyn_peer[99] 	lookupHopsSig:mean 	33
scalar Network.dyn_peer[100] 	lookupTimeSig:mean 	1.8
scalar Network.dyn_peer[100] 	lookupStabilitySig:mean 	0.074275359511375
scalar Network.dyn_peer[100] 	lookupHopsSig:mean 	17.333333333333
scalar Network.dyn_peer[101] 	lookupTimeSig:mean 	2.76
scalar Network.dyn_peer[101] 	lookupStabilitySig:mean 	0.89677972141653
scalar Network.dyn_peer[101] 	lookupHopsSig:mean 	26.8
scalar Network.dyn_peer[102] 	lookupTimeSig:mean 	1.4666666666667
scalar Network.dyn_peer[102] 	lookupStabilitySig:mean 	0.67754586475591
scalar Network.dyn_peer[102] 	lookupHopsSig:mean 	13.833333333333
scalar Network.dyn_peer[103] 	lookupTimeSig:mean 	2.3833333333333
scalar Network.dyn_peer[103] 	lookupStabilitySig:mean 	0.57433024793863
scalar Network.dyn_peer[103] 	lookupHopsSig:mean 	23
scalar Network.dyn_peer[104] 	lookupTimeSig:mean 	3.4
scalar Network.dyn_peer[104] 	lookupStabilitySig:mean 	-0.22121214866638
scalar Network.dyn_peer[104] 	lookupHopsSig:mean 	33.5
scalar Network.dyn_peer[105] 	lookupTimeSig:mean 	2.52
scalar Network.dyn_peer[105] 	lookupStabilitySig:mean 	0.53352307863533
scalar Network.dyn_peer[105] 	lookupHopsSig:mean 	24.4
scalar Network.dyn_peer[106] 	lookupTimeSig:mean 	2.8666666666667
scalar Network.dyn_peer[106] 	lookupStabilitySig:mean 	0.75650357206662
scalar Network.dyn_peer[106] 	lookupHopsSig:mean 	28
scalar Network.dyn_peer[107] 	lookupTimeSig:mean 	2.1666666666667
scalar Network.dyn_peer[107] 	lookupStabilitySig:mean 	0.83411505492404
scalar Network.dyn_peer[107] 	lookupHopsSig:mean 	20.833333333333
scalar Network.dyn_peer[108] 	lookupTimeSig:mean 	1.5357142857143
scalar Network.dyn_peer[108] 	lookupStabilitySig:mean 	0.8016330685267
scalar Network.dyn_peer[108] 	lookupHopsSig:mean 	14.428571428571
scalar Network.dyn_peer[109] 	lookupTimeSig:mean 	1.2666666666667
scalar Network.dyn_peer[109] 	lookupStabilitySig:mean 	0.074581434329351
scalar Network.dyn_peer[109] 	lookupHopsSig:mean 	12
scalar Network.dyn_peer[110] 	lookupTimeSig:mean 	1.5333333333333
scalar Network.dyn_peer[110] 	lookupStabilitySig:mean 	0.13429856797059
scalar Network.dyn_peer[110] 	lookupHopsSig:mean 	14.666666666667
scalar Network.dyn_peer[111] 	lookupTimeSig:mean 	2.2
scalar Network.dyn_peer[111] 	lookupStabilitySig:mean 	0.48939393460751
scalar Network.dyn_peer[111] 	lookupHopsSig:mean 	21.5
scalar Network.dyn_peer[112] 	lookupTimeSig:mean 	1.875
scalar Network.dyn_peer[112] 	lookupStabilitySig:mean 	0.39086803048849
scalar Network.dyn_peer[112] 	lookupHopsSig:mean 	18
scalar Network.dyn_peer[113] 	lookupTimeSig:mean 	5.55
scalar Network.dyn_peer[113] 	lookupStabilitySig:mean 	0.8628055639565
scalar Network.dyn_peer[113] 	lookupHopsSig:mean 	55
scalar Network.dyn_peer[114] 	lookupTimeSig:mean 	1.225
scalar Network.dyn_peer[114] 	lookupStabilitySig:mean 	0.17598037794232
scalar Network.dyn_peer[114] 	lookupHopsSig:mean 	11.5
scalar Network.dyn_peer[115] 	lookupTimeSig:mean 	1.6416666666667
scalar Network.dyn_peer[115] 	lookupStabilitySig:mean 	0.96397311632366
scalar Network.dyn_peer[115] 	lookupHopsSig:mean 	15.5
scalar Network.dyn_peer[116] 	lookupTimeSig:mean 	0.725
scalar Network.dyn_peer[116] 	lookupStabilitySig:mean 	0.19452382624149
scalar Network.dyn_peer[116] 	lookupHopsSig:mean 	6.5
scalar Network.dyn_peer[117] 	lookupTimeSig:mean 	1.7625
scalar Network.dyn_peer[117] 	lookupStabilitySig:mean 	0.8221792310942
scalar Network.dyn_peer[117] 	lookupHopsSig:mean 	16.75
scalar Network.dyn_peer[118] 	lookupTimeSig:mean 	1.625
scalar Network.dyn_peer[118] 	lookupStabilitySig:mean 	0.80089227017015
scalar Network.dyn_peer[118] 	lookupHopsSig:mean 	15.5
scalar Network.dyn_peer[119] 	lookupTimeSig:mean 	4.7333333333333
scalar Network.dyn_peer[119] 	lookupStabilitySig:mean 	0.92088852015634
scalar Network.dyn_peer[119] 	lookupHopsSig:mean 	46.666666666667
scalar Network.dyn_peer[120] 	lookupTimeSig:mean 	1.72
scalar Network.dyn_peer[120] 	lookupStabilitySig:mean 	0.69980689361691
scalar Network.dyn_peer[120] 	lookupHopsSig:mean 	16.4
scalar Network.dyn_peer[121] 	lookupTimeSig:mean 	1.62
scalar Network.dyn_peer[121] 	lookupStabilitySig:mean 	0.72403236175887
scalar Network.dyn_peer[121] 	lookupHopsSig:mean 	15.3
scalar Network.dyn_peer[122] 	lookupTimeSig:mean 	2.675
scalar Network.dyn_peer[122] 	lookupStabilitySig:mean 	0.88401203742251
scalar Network.dyn_peer[122] 	lookupHopsSig:mean 	26
scalar Network.dyn_peer[123] 	lookupTimeSig:mean 	2.92
scalar Network.dyn_peer[123] 	lookupStabilitySig:mean 	0.91700196154416
scalar Network.dyn_peer[123] 	lookupHopsSig:mean 	28.4
scalar Network.dyn_peer[124] 	lookupTimeSig:mean 	1.4
scalar Network.dyn_peer[124] 	lookupStabilitySig:mean 	-0.17619046568871
scalar Network.dyn_peer[124] 	lookupHopsSig:mean 	13.5
scalar Network.dyn_peer[125] 	lookupTimeSig:mean 	1.5222222222222
scalar Network.dyn_peer[125] 	lookupStabilitySig:mean 	0.83726339807941
scalar Network.dyn_peer[125] 	lookupHopsSig:mean 	14.333333333333
scalar Network.dyn_peer[126] 	lookupTimeSig:mean 	2.3666666666667
scalar Network.dyn_peer[126] 	lookupStabilitySig:mean 	0.56031746168931
scalar Network.dyn_peer[126] 	lookupHopsSig:mean 	23
scalar Network.dyn_peer[127] 	lookupTimeSig:mean 	1.94
scalar Network.dyn_peer[127] 	lookupStabilitySig:mean 	0.70219832360744
scalar Network.dyn_peer[127] 	lookupHopsSig:mean 	18.6
scalar Network.dyn_peer[128] 	lookupTimeSig:mean 	2.0285714285714
scalar Network.dyn_peer[128] 	lookupStabilitySig:mean 	0.94568366304572
scalar Network.dyn_peer[128] 	lookupHopsSig:mean 	19.428571428571
scalar Network.dyn_peer[129] 	lookupTimeSig:mean 	1.9166666666667
scalar Network.dyn_peer[129] 	lookupStabilitySig:mean 	0.89220270367029
scalar Network.dyn_peer[129] 	lookupHopsSig:mean 	18.333333333333
scalar Network.dyn_peer[130] 	lookupTimeSig:mean 	2.32
scalar Network.dyn_peer[130] 	lookupStabilitySig:mean 	0.72466805204749
scalar Network.dyn_peer[130] 	lookupHopsSig:mean 	22.4
scalar Network.dyn_peer[131] 	lookupTimeSig:mean 	3.4333333333333
scalar Network.dyn_peer[131] 	lookupStabilitySig:mean 	0.86491329874843
scalar Network.dyn_peer[131] 	lookupHopsSig:mean 	33.666666666667
scalar Network.dyn_peer[132] 	lookupTimeSig:mean 	2.675
scalar Network.dyn_peer[132] 	lookupStabilitySig:mean 	0.78252301551402
scalar Network.dyn_peer[132] 	lookupHopsSig:mean 	26
scalar Network.dyn_peer[133] 	lookupTimeSig:mean 	1.95
scalar Network.dyn_peer[133] 	lookupStabilitySig:mean 	0.71382757571215
scalar Network.dyn_peer[133] 	lookupHopsSig:mean 	18.666666666667
scalar Network.dyn_peer[134] 	lookupTimeSig:mean 	2.5333333333333
scalar Network.dyn_peer[134] 	lookupStabilitySig:mean 	0.4864660302798
scalar Network.dyn_peer[134] 	lookupHopsSig:mean 	24.666666666667
scalar Network.dyn_peer[135] 	lookupTimeSig:mean 	1.19
scalar Network.dyn_peer[135] 	lookupStabilitySig:mean 	0.70747905422468
scalar Network.dyn_peer[135] 	lookupHopsSig:mean 	11
scalar Network.dyn_peer[136] 	lookupTimeSig:mean 	2.45
scalar Network.dyn_peer[136] 	lookupStabilitySig:mean 	0.54609009623528
scalar Network.dyn_peer[136] 	lookupHopsSig:mean 	23.75
scalar Network.dyn_peer[137] 	lookupTimeSig:mean 	1.86
scalar Network.dyn_peer[137] 	lookupStabilitySig:mean 	0.81268615601584
scalar Network.dyn_peer[137] 	lookupHopsSig:mean 	17.7
scalar Network.dyn_peer[138] 	lookupTimeSig:mean 	1.125
scalar Network.dyn_peer[138] 	lookupStabilitySig:mean 	0.49970822501928
scalar Network.dyn_peer[138] 	lookupHopsSig:mean 	10.5
scalar Network.dyn_peer[139] 	lookupTimeSig:mean 	1.7
scalar Network.dyn_peer[139] 	lookupStabilitySig:mean 	0.69638283029199
scalar Network.dyn_peer[139] 	lookupHopsSig:mean 	16.2
scalar Network.dyn_peer[140] 	lookupTimeSig:mean 	1.525
scalar Network.dyn_peer[140] 	lookupStabilitySig:mean 	0.40350877121091
scalar Network.dyn_peer[140] 	lookupHopsSig:mean 	14.5
scalar Network.dyn_peer[141] 	lookupTimeSig:mean 	1.35
scalar Network.dyn_peer[141] 	lookupStabilitySig:mean 	0.31188843771815
scalar Network.dyn_peer[141] 	lookupHopsSig:mean 	12.75
scalar Network.dyn_peer[142] 	lookupTimeSig:mean 	3.45
scalar Network.dyn_peer[142] 	lookupStabilitySig:mean 	0.85218625096604
scalar Network.dyn_peer[142] 	lookupHopsSig:mean 	33.75
scalar Network.dyn_peer[143] 	lookupTimeSig:mean 	2.5
scalar Network.dyn_peer[143] 	lookupStabilitySig:mean 	0.56737280885379
scalar Network.dyn_peer[143] 	lookupHopsSig:mean 	24.333333333333
scalar Network.dyn_peer[144] 	lookupTimeSig:mean 	1.3272727272727
scalar Network.dyn_peer[144] 	lookupStabilitySig:mean 	0.69494196129116
scalar Network.dyn_peer[144] 	lookupHopsSig:mean 	12.363636363636
scalar Network.dyn_peer[145] 	lookupTimeSig:mean 	2.2333333333333
scalar Network.dyn_peer[145] 	lookupStabilitySig:mean 	0.51297935346762
scalar Network.dyn_peer[145] 	lookupHopsSig:mean 	21.666666666667
scalar Network.dyn_peer[146] 	lookupTimeSig:mean 	1.94
scalar Network.dyn_peer[146] 	lookupStabilitySig:mean 	0.71991686969995
scalar Network.dyn_peer[146] 	lookupHopsSig:mean 	18.6
scalar Network.dyn_peer[147] 	lookupTimeSig:mean 	1.3833333333333
scalar Network.dyn_peer[147] 	lookupStabilitySig:mean 	0.56184822755555
scalar Network.dyn_peer[147] 	lookupHopsSig:mean 	13
scalar Network.dyn_peer[148] 	lookupTimeSig:mean 	3.1
scalar Network.dyn_peer[148] 	lookupStabilitySig:mean 	0.31118473658959
scalar Network.dyn_peer[148] 	lookupHopsSig:mean 	30.333333333333
scalar Network.dyn_peer[149] 	lookupTimeSig:mean 	3.14
scalar Network.dyn_peer[149] 	lookupStabilitySig:mean 	0.8575883384794
scalar Network.dyn_peer[149] 	lookupHopsSig:mean 	30.6
scalar Network.dyn_peer[150] 	lookupTimeSig:mean 	1.8375
scalar Network.dyn_peer[150] 	lookupStabilitySig:mean 	0.66291994531639
scalar Network.dyn_peer[150] 	lookupHopsSig:mean 	17.5
scalar Network.dyn_peer[151] 	lookupTimeSig:mean 	2.1166666666667
scalar Network.dyn_peer[151] 	lookupStabilitySig:mean 	0.85310077667236
scalar Network.dyn_peer[151] 	lookupHopsSig:mean 	20.333333333333
scalar Network.dyn_peer[152] 	lookupTimeSig:mean 	1.8
scalar Network.dyn_peer[152] 	lookupStabilitySig:mean 	0.78112587534512
scalar Network.dyn_peer[152] 	lookupHopsSig:mean 	17.166666666667
scalar Network.dyn_peer[153] 	lookupTimeSig:mean 	1.425
scalar Network.dyn_peer[153] 	lookupStabilitySig:mean 	0.82514662260655
scalar Network.dyn_peer[153] 	lookupHopsSig:mean 	13.375
scalar Network.dyn_peer[154] 	lookupTimeSig:mean 	1.2625
scalar Network.dyn_peer[154] 	lookupStabilitySig:mean 	0.78324462659657
scalar Network.dyn_peer[154] 	lookupHopsSig:mean 	11.75
scalar Network.dyn_peer[155] 	lookupTimeSig:mean 	1.6
scalar Network.dyn_peer[155] 	lookupStabilitySig:mean 	0.21723227389157
scalar Network.dyn_peer[155] 	lookupHopsSig:mean 	15.25
scalar Network.dyn_peer[156] 	lookupTimeSig:mean 	2.1
scalar Network.dyn_peer[156] 	lookupStabilitySig:mean 	0.72722972929478
scalar Network.dyn_peer[156] 	lookupHopsSig:mean 	20.333333333333
scalar Network.dyn_peer[157] 	lookupTimeSig:mean 	1.78
scalar Network.dyn_peer[157] 	lookupStabilitySig:mean 	0.54607226066291
scalar Network.dyn_peer[157] 	lookupHopsSig:mean 	17
scalar Network.dyn_peer[158] 	lookupTimeSig:mean 	1.6666666666667
scalar Network.dyn_peer[158] 	lookupStabilitySig:mean 	0.50214364379644
scalar Network.dyn_peer[158] 	lookupHopsSig:mean 	16
scalar Network.dyn_peer[159] 	lookupTimeSig:mean 	1.475
scalar Network.dyn_peer[159] 	lookupStabilitySig:mean 	0.29518806561828
scalar Network.dyn_peer[159] 	lookupHopsSig:mean 	14
scalar Network.dyn_peer[160] 	lookupTimeSig:mean 	1.1
scalar Network.dyn_peer[160] 	lookupStabilitySig:mean 	0.76809210819192
scalar Network.dyn_peer[160] 	lookupHopsSig:mean 	10.083333333333
scalar Network.dyn_peer[161] 	lookupTimeSig:mean 	1.7
scalar Network.dyn_peer[161] 	lookupStabilitySig:mean 	0.72298069174091
scalar Network.dyn_peer[161] 	lookupHopsSig:mean 	16.333333333333
scalar Network.dyn_peer[162] 	lookupTimeSig:mean 	1.7166666666667
scalar Network.dyn_peer[162] 	lookupStabilitySig:mean 	0.68450130584339
scalar Network.dyn_peer[162] 	lookupHopsSig:mean 	16.333333333333
scalar Network.dyn_peer[163] 	lookupTimeSig:mean 	1.0875
scalar Network.dyn_peer[163] 	lookupStabilitySig:mean 	0.59324976219796
scalar Network.dyn_peer[163] 	lookupHopsSig:mean 	10
scalar Network.dyn_peer[164] 	lookupTimeSig:mean 	2.3666666666667
scalar Network.dyn_peer[164] 	lookupStabilitySig:mean 	0.9125760331129
scalar Network.dyn_peer[164] 	lookupHopsSig:mean 	22.833333333333
scalar Network.dyn_peer[165] 	lookupTimeSig:mean 	1.24
scalar Network.dyn_peer[165] 	lookupStabilitySig:mean 	0.4522163592279
scalar Network.dyn_peer[165] 	lookupHopsSig:mean 	11.6
scalar Network.dyn_peer[166] 	lookupTimeSig:mean 	1.5857142857143
scalar Network.dyn_peer[166] 	lookupStabilitySig:mean 	0.92701558409525
scalar Network.dyn_peer[166] 	lookupHopsSig:mean 	15
scalar Network.dyn_peer[167] 	lookupTimeSig:mean 	1.86
scalar Network.dyn_peer[167] 	lookupStabilitySig:mean 	0.79658319950104
scalar Network.dyn_peer[167] 	lookupHopsSig:mean 	17.8
scalar Network.dyn_peer[168] 	lookupTimeSig:mean 	2.15
scalar Network.dyn_peer[168] 	lookupStabilitySig:mean 	0.92969943024218
scalar Network.dyn_peer[168] 	lookupHopsSig:mean 	20.666666666667
scalar Network.dyn_peer[169] 	lookupTimeSig:mean 	2.04
scalar Network.dyn_peer[169] 	lookupStabilitySig:mean 	0.45945846885443
scalar Network.dyn_peer[169] 	lookupHopsSig:mean 	19.6
scalar Network.dyn_peer[170] 	lookupTimeSig:mean 	1.4857142857143
scalar Network.dyn_peer[170] 	lookupStabilitySig:mean 	0.79414476667132
scalar Network.dyn_peer[170] 	lookupHopsSig:mean 	14
scalar Network.dyn_peer[171] 	lookupTimeSig:mean 	2.7
scalar Network.dyn_peer[171] 	lookupStabilitySig:mean 	0.40367086138576
scalar Network.dyn_peer[171] 	lookupHopsSig:mean 	26.25
scalar Network.dyn_peer[172] 	lookupTimeSig:mean 	2.25
scalar Network.dyn_peer[172] 	lookupStabilitySig:mean 	0.77020825042079
scalar Network.dyn_peer[172] 	lookupHopsSig:mean 	21.666666666667
scalar Network.dyn_peer[173] 	lookupTimeSig:mean 	2.5
scalar Network.dyn_peer[173] 	lookupStabilitySig:mean 	0.50024508684874
scalar Network.dyn_peer[173] 	lookupHopsSig:mean 	24.25
scalar Network.dyn_peer[174] 	lookupTimeSig:mean 	2.4142857142857
scalar Network.dyn_peer[174] 	lookupStabilitySig:mean 	0.94906182321055
scalar Network.dyn_peer[174] 	lookupHopsSig:mean 	23.285714285714
scalar Network.dyn_peer[175] 	lookupTimeSig:mean 	1.44
scalar Network.dyn_peer[175] 	lookupStabilitySig:mean 	0.32652880549431
scalar Network.dyn_peer[175] 	lookupHopsSig:mean 	13.6
scalar Network.dyn_peer[176] 	lookupTimeSig:mean 	2.72
scalar Network.dyn_peer[176] 	lookupStabilitySig:mean 	0.56174540370703
scalar Network.dyn_peer[176] 	lookupHopsSig:mean 	26.4
scalar Network.dyn_peer[177] 	lookupTimeSig:mean 	2.8
scalar Network.dyn_peer[177] 	lookupStabilitySig:mean 	0.32289200772842
scalar Network.dyn_peer[177] 	lookupHopsSig:mean 	27.333333333333
scalar Network.dyn_peer[178] 	lookupTimeSig:mean 	1.91
scalar Network.dyn_peer[178] 	lookupStabilitySig:mean 	0.86185892280191
scalar Network.dyn_peer[178] 	lookupHopsSig:mean 	18.2
scalar Network.dyn_peer[179] 	lookupTimeSig:mean 	4.1666666666667
scalar Network.dyn_peer[179] 	lookupStabilitySig:mean 	0.10433540741603
scalar Network.dyn_peer[179] 	lookupHopsSig:mean 	41
scalar Network.dyn_peer[180] 	lookupTimeSig:mean 	1.5666666666667
scalar Network.dyn_peer[180] 	lookupStabilitySig:mean 	0.24521072705587
scalar Network.dyn_peer[180] 	lookupHopsSig:mean 	15
scalar Network.dyn_peer[181] 	lookupTimeSig:mean 	1.7769230769231
scalar Network.dyn_peer[181] 	lookupStabilitySig:mean 	0.94280410540075
scalar Network.dyn_peer[181] 	lookupHopsSig:mean 	16.846153846154
scalar Network.dyn_peer[182] 	lookupTimeSig:mean 	1.9666666666667
scalar Network.dyn_peer[182] 	lookupStabilitySig:mean 	0.83803767447049
scalar Network.dyn_peer[182] 	lookupHopsSig:mean 	18.833333333333
scalar Network.dyn_peer[183] 	lookupTimeSig:mean 	1.4
scalar Network.dyn_peer[183] 	lookupStabilitySig:mean 	0.030145928263664
scalar Network.dyn_peer[183] 	lookupHopsSig:mean 	13.333333333333
scalar Network.dyn_peer[184] 	lookupTimeSig:mean 	2.55
scalar Network.dyn_peer[184] 	lookupStabilitySig:mean 	0.66356146847829
scalar Network.dyn_peer[184] 	lookupHopsSig:mean 	24.75
scalar Network.dyn_peer[185] 	lookupTimeSig:mean 	2.2166666666667
scalar Network.dyn_peer[185] 	lookupStabilitySig:mean 	0.88188730886516
scalar Network.dyn_peer[185] 	lookupHopsSig:mean 	21.333333333333
scalar Network.dyn_peer[186] 	lookupTimeSig:mean 	2.325
scalar Network.dyn_peer[186] 	lookupStabilitySig:mean 	0.85660606343299
scalar Network.dyn_peer[186] 	lookupHopsSig:mean 	22.5
scalar Network.dyn_peer[187] 	lookupTimeSig:mean 	1.3
scalar Network.dyn_peer[187] 	lookupStabilitySig:mean 	0.32058139741421
scalar Network.dyn_peer[187] 	lookupHopsSig:mean 	12.2
scalar Network.dyn_peer[188] 	lookupTimeSig:mean 	1.5625
scalar Network.dyn_peer[188] 	lookupStabilitySig:mean 	0.64883105957415
scalar Network.dyn_peer[188] 	lookupHopsSig:mean 	14.75
scalar Network.dyn_peer[189] 	lookupTimeSig:mean 	1.65
scalar Network.dyn_peer[189] 	lookupStabilitySig:mean 	0.39237552788109
scalar Network.dyn_peer[189] 	lookupHopsSig:mean 	15.75
scalar Network.dyn_peer[190] 	lookupTimeSig:mean 	1.12
scalar Network.dyn_peer[190] 	lookupStabilitySig:mean 	0.39019466117024
scalar Network.dyn_peer[190] 	lookupHopsSig:mean 	10.4
scalar Network.dyn_peer[191] 	lookupTimeSig:mean 	1.7384615384615
scalar Network.dyn_peer[191] 	lookupStabilitySig:mean 	0.96268007832651
scalar Network.dyn_peer[191] 	lookupHopsSig:mean 	16.461538461538
scalar Network.dyn_peer[192] 	lookupTimeSig:mean 	2.2
scalar Network.dyn_peer[192] 	lookupStabilitySig:mean 	0.54936618854602
scalar Network.dyn_peer[192] 	lookupHopsSig:mean 	21.333333333333
scalar Network.dyn_peer[193] 	lookupTimeSig:mean 	2.3333333333333
scalar Network.dyn_peer[193] 	lookupStabilitySig:mean 	0.68715302708248
scalar Network.dyn_peer[193] 	lookupHopsSig:mean 	22.5
scalar Network.dyn_peer[194] 	lookupTimeSig:mean 	1.5625
scalar Network.dyn_peer[194] 	lookupStabilitySig:mean 	0.6193179708207
scalar Network.dyn_peer[194] 	lookupHopsSig:mean 	14.75
scalar Network.dyn_peer[195] 	lookupTimeSig:mean 	1.8
scalar Network.dyn_peer[195] 	lookupStabilitySig:mean 	0.61939600793024
scalar Network.dyn_peer[195] 	lookupHopsSig:mean 	17.166666666667
scalar Network.dyn_peer[196] 	lookupTimeSig:mean 	1.5714285714286
scalar Network.dyn_peer[196] 	lookupStabilitySig:mean 	0.87551111860999
scalar Network.dyn_peer[196] 	lookupHopsSig:mean 	14.857142857143
scalar Network.dyn_peer[197] 	lookupTimeSig:mean 	2.075
scalar Network.dyn_peer[197] 	lookupStabilitySig:mean 	0.48885392211378
scalar Network.dyn_peer[197] 	lookupHopsSig:mean 	20
scalar Network.dyn_peer[198] 	lookupTimeSig:mean 	1.25
scalar Network.dyn_peer[198] 	lookupStabilitySig:mean 	-0.28289473056793
scalar Network.dyn_peer[198] 	lookupHopsSig:mean 	12
scalar Network.dyn_peer[199] 	lookupTimeSig:mean 	1.4928571428571
scalar Network.dyn_peer[199] 	lookupStabilitySig:mean 	0.83450782987555
scalar Network.dyn_peer[199] 	lookupHopsSig:mean 	14
scalar Network.dyn_peer[200] 	lookupTimeSig:mean 	2.45
scalar Network.dyn_peer[200] 	lookupStabilitySig:mean 	0.96248841966735
scalar Network.dyn_peer[200] 	lookupHopsSig:mean 	23.625
scalar Network.dyn_peer[201] 	lookupTimeSig:mean 	2.3714285714286
scalar Network.dyn_peer[201] 	lookupStabilitySig:mean 	0.86554116250149
scalar Network.dyn_peer[201] 	lookupHopsSig:mean 	22.857142857143
scalar Network.dyn_peer[202] 	lookupTimeSig:mean 	2.1666666666667
scalar Network.dyn_peer[202] 	lookupStabilitySig:mean 	0.13117283085982
scalar Network.dyn_peer[202] 	lookupHopsSig:mean 	21
scalar Network.dyn_peer[203] 	lookupTimeSig:mean 	1.2833333333333
scalar Network.dyn_peer[203] 	lookupStabilitySig:mean 	0.65062977187335
scalar Network.dyn_peer[203] 	lookupHopsSig:mean 	12
scalar Network.dyn_peer[204] 	lookupTimeSig:mean 	2.575
scalar Network.dyn_peer[204] 	lookupStabilitySig:mean 	0.89879514463246
scalar Network.dyn_peer[204] 	lookupHopsSig:mean 	25
scalar Network.dyn_peer[205] 	lookupTimeSig:mean 	1.26
scalar Network.dyn_peer[205] 	lookupStabilitySig:mean 	0.44480861127377
scalar Network.dyn_peer[205] 	lookupHopsSig:mean 	11.8
scalar Network.dyn_peer[206] 	lookupTimeSig:mean 	2.7333333333333
scalar Network.dyn_peer[206] 	lookupStabilitySig:mean 	0.4791264384985
scalar Network.dyn_peer[206] 	lookupHopsSig:mean 	26.666666666667
scalar Network.dyn_peer[207] 	lookupTimeSig:mean 	0.6
scalar Network.dyn_peer[207] 	lookupStabilitySig:mean 	0.27777776122093
scalar Network.dyn_peer[207] 	lookupHopsSig:mean 	5.25
scalar Network.dyn_peer[208] 	lookupTimeSig:mean 	1.6166666666667
scalar Network.dyn_peer[208] 	lookupStabilitySig:mean 	0.60179499257356
scalar Network.dyn_peer[208] 	lookupHopsSig:mean 	15.333333333333
scalar Network.dyn_peer[209] 	lookupTimeSig:mean 	0.94
scalar Network.dyn_peer[209] 	lookupStabilitySig:mean 	0.48032916113734
scalar Network.dyn_peer[209] 	lookupHopsSig:mean 	8.6
scalar Network.dyn_peer[210] 	lookupTimeSig:mean 	2.72
scalar Network.dyn_peer[210] 	lookupStabilitySig:mean 	0.90214039199054
scalar Network.dyn_peer[210] 	lookupHopsSig:mean 	26.4
scalar Network.dyn_peer[211] 	lookupTimeSig:mean 	2.5285714285714
scalar Network.dyn_peer[211] 	lookupStabilitySig:mean 	0.8033715825794
scalar Network.dyn_peer[211] 	lookupHopsSig:mean 	24.428571428571
scalar Network.dyn_peer[212] 	lookupTimeSig:mean 	1.5714285714286
scalar Network.dyn_peer[212] 	lookupStabilitySig:mean 	0.60591756978205
scalar Network.dyn_peer[212] 	lookupHopsSig:mean 	14.857142857143
scalar Network.dyn_peer[213] 	lookupTimeSig:mean 	1.62
scalar Network.dyn_peer[213] 	lookupStabilitySig:mean 	0.80524064009078
scalar Network.dyn_peer[213] 	lookupHopsSig:mean 	15.3
scalar Network.dyn_peer[214] 	lookupTimeSig:mean 	2.2666666666667
scalar Network.dyn_peer[214] 	lookupStabilitySig:mean 	0.47742615888516
scalar Network.dyn_peer[214] 	lookupHopsSig:mean 	22
scalar Network.dyn_peer[215] 	lookupTimeSig:mean 	1.325
scalar Network.dyn_peer[215] 	lookupStabilitySig:mean 	0.7182407155633
scalar Network.dyn_peer[215] 	lookupHopsSig:mean 	12.375
scalar Network.dyn_peer[216] 	lookupTimeSig:mean 	1.8875
scalar Network.dyn_peer[216] 	lookupStabilitySig:mean 	0.95020985440351
scalar Network.dyn_peer[216] 	lookupHopsSig:mean 	18
scalar Network.dyn_peer[217] 	lookupTimeSig:mean 	2
scalar Network.dyn_peer[217] 	lookupStabilitySig:mean 	0.93944851350453
scalar Network.dyn_peer[217] 	lookupHopsSig:mean 	19.111111111111
scalar Network.dyn_peer[218] 	lookupTimeSig:mean 	1.5666666666667
scalar Network.dyn_peer[218] 	lookupStabilitySig:mean 	0.46402931958437
scalar Network.dyn_peer[218] 	lookupHopsSig:mean 	15
scalar Network.dyn_peer[219] 	lookupTimeSig:mean 	1.3666666666667
scalar Network.dyn_peer[219] 	lookupStabilitySig:mean 	0.53472387914856
scalar Network.dyn_peer[219] 	lookupHopsSig:mean 	12.833333333333
scalar Network.dyn_peer[220] 	lookupTimeSig:mean 	2.05
scalar Network.dyn_peer[220] 	lookupStabilitySig:mean 	0.86502466141246
scalar Network.dyn_peer[220] 	lookupHopsSig:mean 	19.625
scalar Network.dyn_peer[221] 	lookupTimeSig:mean 	2.1428571428571
scalar Network.dyn_peer[221] 	lookupStabilitySig:mean 	0.60010570487274
scalar Network.dyn_peer[221] 	lookupHopsSig:mean 	20.571428571429
scalar Network.dyn_peer[222] 	lookupTimeSig:mean 	1.15
scalar Network.dyn_peer[222] 	lookupStabilitySig:mean 	0.36267422139645
scalar Network.dyn_peer[222] 	lookupHopsSig:mean 	10.75
scalar Network.dyn_peer[223] 	lookupTimeSig:mean 	2.0333333333333
scalar Network.dyn_peer[223] 	lookupStabilitySig:mean 	0.46722078075012
scalar Network.dyn_peer[223] 	lookupHopsSig:mean 	19.666666666667
scalar Network.dyn_peer[224] 	lookupTimeSig:mean 	1.95
scalar Network.dyn_peer[224] 	lookupStabilitySig:mean 	0.4191461391747
scalar Network.dyn_peer[224] 	lookupHopsSig:mean 	18.75
scalar Network.dyn_peer[225] 	lookupTimeSig:mean 	1.45
scalar Network.dyn_peer[225] 	lookupStabilitySig:mean 	0.65392633958254
scalar Network.dyn_peer[225] 	lookupHopsSig:mean 	13.625
scalar Network.dyn_peer[226] 	lookupTimeSig:mean 	1.2727272727273
scalar Network.dyn_peer[226] 	lookupStabilitySig:mean 	0.88578095121986
scalar Network.dyn_peer[226] 	lookupHopsSig:mean 	11.818181818182
scalar Network.dyn_peer[227] 	lookupTimeSig:mean 	1.5666666666667
scalar Network.dyn_peer[227] 	lookupStabilitySig:mean 	0.50850389711559
scalar Network.dyn_peer[227] 	lookupHopsSig:mean 	14.833333333333
scalar Network.dyn_peer[228] 	lookupTimeSig:mean 	1.56
scalar Network.dyn_peer[228] 	lookupStabilitySig:mean 	0.80208961777389
scalar Network.dyn_peer[228] 	lookupHopsSig:mean 	14.8
scalar Network.dyn_peer[229] 	lookupTimeSig:mean 	1.44
scalar Network.dyn_peer[229] 	lookupStabilitySig:mean 	0.88815002785996
scalar Network.dyn_peer[229] 	lookupHopsSig:mean 	13.5
scalar Network.dyn_peer[230] 	lookupTimeSig:mean 	2.3666666666667
scalar Network.dyn_peer[230] 	lookupStabilitySig:mean 	0.73614510397116
scalar Network.dyn_peer[230] 	lookupHopsSig:mean 	23
scalar Network.dyn_peer[231] 	lookupTimeSig:mean 	1.8
scalar Network.dyn_peer[231] 	lookupStabilitySig:mean 	0.65179545432329
scalar Network.dyn_peer[231] 	lookupHopsSig:mean 	17.25
scalar Network.dyn_peer[232] 	lookupTimeSig:mean 	1.0909090909091
scalar Network.dyn_peer[232] 	lookupStabilitySig:mean 	0.75774823374708
scalar Network.dyn_peer[232] 	lookupHopsSig:mean 	10
scalar Network.dyn_peer[233] 	lookupTimeSig:mean 	2.2
scalar Network.dyn_peer[233] 	lookupStabilitySig:mean 	0.32243729010224
scalar Network.dyn_peer[233] 	lookupHopsSig:mean 	21.25
scalar Network.dyn_peer[234] 	lookupTimeSig:mean 	1.9
scalar Network.dyn_peer[234] 	lookupStabilitySig:mean 	0.3297802656889
scalar Network.dyn_peer[234] 	lookupHopsSig:mean 	18.25
scalar Network.dyn_peer[235] 	lookupTimeSig:mean 	5.15
scalar Network.dyn_peer[235] 	lookupStabilitySig:mean 	0.60178570449352
scalar Network.dyn_peer[235] 	lookupHopsSig:mean 	51
scalar Network.dyn_peer[236] 	lookupTimeSig:mean 	1.74
scalar Network.dyn_peer[236] 	lookupStabilitySig:mean 	0.71493855798617
scalar Network.dyn_peer[236] 	lookupHopsSig:mean 	16.6
scalar Network.dyn_peer[237] 	lookupTimeSig:mean 	1.2083333333333
scalar Network.dyn_peer[237] 	lookupStabilitySig:mean 	0.74017223009529
scalar Network.dyn_peer[237] 	lookupHopsSig:mean 	11.166666666667
scalar Network.dyn_peer[238] 	lookupTimeSig:mean 	2.1
scalar Network.dyn_peer[238] 	lookupStabilitySig:mean 	0.54566653072834
scalar Network.dyn_peer[238] 	lookupHopsSig:mean 	20.333333333333
scalar Network.dyn_peer[239] 	lookupTimeSig:mean 	2.6
scalar Network.dyn_peer[239] 	lookupStabilitySig:mean 	0.48746755346656
scalar Network.dyn_peer[239] 	lookupHopsSig:mean 	25.25
scalar Network.dyn_peer[240] 	lookupTimeSig:mean 	1.36
scalar Network.dyn_peer[240] 	lookupStabilitySig:mean 	0.48921449035406
scalar Network.dyn_peer[240] 	lookupHopsSig:mean 	12.8
scalar Network.dyn_peer[241] 	lookupTimeSig:mean 	1.4
scalar Network.dyn_peer[241] 	lookupStabilitySig:mean 	0.96499653021844
scalar Network.dyn_peer[241] 	lookupHopsSig:mean 	13.083333333333
scalar Network.dyn_peer[242] 	lookupTimeSig:mean 	2.175
scalar Network.dyn_peer[242] 	lookupStabilitySig:mean 	0.42897675558925
scalar Network.dyn_peer[242] 	lookupHopsSig:mean 	21
scalar Network.dyn_peer[243] 	lookupTimeSig:mean 	1.575
scalar Network.dyn_peer[243] 	lookupStabilitySig:mean 	0.91321893699933
scalar Network.dyn_peer[243] 	lookupHopsSig:mean 	14.875
scalar Network.dyn_peer[244] 	lookupTimeSig:mean 	3.4
scalar Network.dyn_peer[244] 	lookupStabilitySig:mean 	0.71934209764004
scalar Network.dyn_peer[244] 	lookupHopsSig:mean 	33.333333333333
scalar Network.dyn_peer[245] 	lookupTimeSig:mean 	3.15
scalar Network.dyn_peer[245] 	lookupStabilitySig:mean 	0.67857448803261
scalar Network.dyn_peer[245] 	lookupHopsSig:mean 	30.75
scalar Network.dyn_peer[246] 	lookupTimeSig:mean 	2.18
scalar Network.dyn_peer[246] 	lookupStabilitySig:mean 	0.73907424174249
scalar Network.dyn_peer[246] 	lookupHopsSig:mean 	21
scalar Network.dyn_peer[247] 	lookupTimeSig:mean 	2.1142857142857
scalar Network.dyn_peer[247] 	lookupStabilitySig:mean 	0.74618222005665
scalar Network.dyn_peer[247] 	lookupHopsSig:mean 	20.285714285714
scalar Network.dyn_peer[248] 	lookupTimeSig:mean 	2.9
scalar Network.dyn_peer[248] 	lookupStabilitySig:mean 	0.9012901536189
scalar Network.dyn_peer[248] 	lookupHopsSig:mean 	28.25
scalar Network.dyn_peer[249] 	lookupTimeSig:mean 	1.8571428571429
scalar Network.dyn_peer[249] 	lookupStabilitySig:mean 	0.69972863500672
scalar Network.dyn_peer[249] 	lookupHopsSig:mean 	17.714285714286
scalar Network.dyn_peer[250] 	lookupTimeSig:mean 	3.4
scalar Network.dyn_peer[250] 	lookupStabilitySig:mean 	0.80101643378536
scalar Network.dyn_peer[250] 	lookupHopsSig:mean 	33.333333333333
scalar Network.dyn_peer[251] 	lookupTimeSig:mean 	1.95
scalar Network.dyn_peer[251] 	lookupStabilitySig:mean 	0.94733712957241
scalar Network.dyn_peer[251] 	lookupHopsSig:mean 	18.6
scalar Network.dyn_peer[252] 	lookupTimeSig:mean 	1.8714285714286
scalar Network.dyn_peer[252] 	lookupStabilitySig:mean 	0.75662026847047
scalar Network.dyn_peer[252] 	lookupHopsSig:mean 	17.857142857143
scalar Network.dyn_peer[253] 	lookupTimeSig:mean 	1.9875
scalar Network.dyn_peer[253] 	lookupStabilitySig:mean 	0.6829284975538
scalar Network.dyn_peer[253] 	lookupHopsSig:mean 	19
scalar Network.dyn_peer[254] 	lookupTimeSig:mean 	1.86
scalar Network.dyn_peer[254] 	lookupStabilitySig:mean 	0.51020132899284
scalar Network.dyn_peer[254] 	lookupHopsSig:mean 	17.8
scalar Network.dyn_peer[255] 	lookupTimeSig:mean 	1.88
scalar Network.dyn_peer[255] 	lookupStabilitySig:mean 	0.719291068241
scalar Network.dyn_peer[255] 	lookupHopsSig:mean 	18
scalar Network.dyn_peer[256] 	lookupTimeSig:mean 	1.7428571428571
scalar Network.dyn_peer[256] 	lookupStabilitySig:mean 	0.87543072312006
scalar Network.dyn_peer[256] 	lookupHopsSig:mean 	16.571428571429
scalar Network.dyn_peer[257] 	lookupTimeSig:mean 	1.95
scalar Network.dyn_peer[257] 	lookupStabilitySig:mean 	0.7911455379799
scalar Network.dyn_peer[257] 	lookupHopsSig:mean 	18.75
scalar Network.dyn_peer[258] 	lookupTimeSig:mean 	1.8357142857143
scalar Network.dyn_peer[258] 	lookupStabilitySig:mean 	0.94739063922316
scalar Network.dyn_peer[258] 	lookupHopsSig:mean 	17.428571428571
scalar Network.dyn_peer[259] 	lookupTimeSig:mean 	2.675
scalar Network.dyn_peer[259] 	lookupStabilitySig:mean 	0.70855198800564
scalar Network.dyn_peer[259] 	lookupHopsSig:mean 	26
scalar Network.dyn_peer[260] 	lookupTimeSig:mean 	1.4875
scalar Network.dyn_peer[260] 	lookupStabilitySig:mean 	0.676272676792
scalar Network.dyn_peer[260] 	lookupHopsSig:mean 	14
scalar Network.dyn_peer[261] 	lookupTimeSig:mean 	2.05
scalar Network.dyn_peer[261] 	lookupStabilitySig:mean 	-0.35963115096092
scalar Network.dyn_peer[261] 	lookupHopsSig:mean 	20
scalar Network.dyn_peer[262] 	lookupTimeSig:mean 	1.4444444444444
scalar Network.dyn_peer[262] 	lookupStabilitySig:mean 	0.80664526505603
scalar Network.dyn_peer[262] 	lookupHopsSig:mean 	13.555555555556
scalar Network.dyn_peer[263] 	lookupTimeSig:mean 	1.3
scalar Network.dyn_peer[263] 	lookupStabilitySig:mean 	0.31974111311138
scalar Network.dyn_peer[263] 	lookupHopsSig:mean 	12.25
scalar Network.dyn_peer[264] 	lookupTimeSig:mean 	1.5181818181818
scalar Network.dyn_peer[264] 	lookupStabilitySig:mean 	0.88042184456506
scalar Network.dyn_peer[264] 	lookupHopsSig:mean 	14.272727272727
scalar Network.dyn_peer[265] 	lookupTimeSig:mean 	2.62
scalar Network.dyn_peer[265] 	lookupStabilitySig:mean 	0.71959103792906
scalar Network.dyn_peer[265] 	lookupHopsSig:mean 	25.4
scalar Network.dyn_peer[266] 	lookupTimeSig:mean 	0.81666666666667
scalar Network.dyn_peer[266] 	lookupStabilitySig:mean 	0.58330097111563
scalar Network.dyn_peer[266] 	lookupHopsSig:mean 	7.3333333333333
scalar Network.dyn_peer[267] 	lookupTimeSig:mean 	2.275
scalar Network.dyn_peer[267] 	lookupStabilitySig:mean 	0.59794873837382
scalar Network.dyn_peer[267] 	lookupHopsSig:mean 	22
scalar Network.dyn_peer[268] 	lookupTimeSig:mean 	3.0333333333333
scalar Network.dyn_peer[268] 	lookupStabilitySig:mean 	0.55588165670633
scalar Network.dyn_peer[268] 	lookupHopsSig:mean 	29.666666666667
scalar Network.dyn_peer[269] 	lookupTimeSig:mean 	2.08
scalar Network.dyn_peer[269] 	lookupStabilitySig:mean 	0.37811268568039
scalar Network.dyn_peer[269] 	lookupHopsSig:mean 	20
scalar Network.dyn_peer[270] 	lookupTimeSig:mean 	1.3666666666667
scalar Network.dyn_peer[270] 	lookupStabilitySig:mean 	0.7338999506707
scalar Network.dyn_peer[270] 	lookupHopsSig:mean 	12.833333333333
scalar Network.dyn_peer[271] 	lookupTimeSig:mean 	1.75
scalar Network.dyn_peer[271] 	lookupStabilitySig:mean 	0.70710863980154
scalar Network.dyn_peer[271] 	lookupHopsSig:mean 	16.666666666667
scalar Network.dyn_peer[272] 	lookupTimeSig:mean 	1.08
scalar Network.dyn_peer[272] 	lookupStabilitySig:mean 	0.57591422647238
scalar Network.dyn_peer[272] 	lookupHopsSig:mean 	10
scalar Network.dyn_peer[273] 	lookupTimeSig:mean 	1.475
scalar Network.dyn_peer[273] 	lookupStabilitySig:mean 	0.91932499594986
scalar Network.dyn_peer[273] 	lookupHopsSig:mean 	13.833333333333
scalar Network.dyn_peer[274] 	lookupTimeSig:mean 	1.58
scalar Network.dyn_peer[274] 	lookupStabilitySig:mean 	0.78702273517847
scalar Network.dyn_peer[274] 	lookupHopsSig:mean 	15
scalar Network.dyn_peer[275] 	lookupTimeSig:mean 	3
scalar Network.dyn_peer[275] 	lookupStabilitySig:mean 	-0.21320540457964
scalar Network.dyn_peer[275] 	lookupHopsSig:mean 	29.5
scalar Network.dyn_peer[276] 	lookupTimeSig:mean 	1.37
scalar Network.dyn_peer[276] 	lookupStabilitySig:mean 	0.70324874697253
scalar Network.dyn_peer[276] 	lookupHopsSig:mean 	12.8
scalar Network.dyn_peer[277] 	lookupTimeSig:mean 	1.1
scalar Network.dyn_peer[277] 	lookupStabilitySig:mean 	0.18993506828944
scalar Network.dyn_peer[277] 	lookupHopsSig:mean 	10.333333333333
scalar Network.dyn_peer[278] 	lookupTimeSig:mean 	2.3
scalar Network.dyn_peer[278] 	lookupStabilitySig:mean 	0.499396674335
scalar Network.dyn_peer[278] 	lookupHopsSig:mean 	22.5
scalar Network.dyn_peer[279] 	lookupTimeSig:mean 	2.0636363636364
scalar Network.dyn_peer[279] 	lookupStabilitySig:mean 	0.85059998398223
scalar Network.dyn_peer[279] 	lookupHopsSig:mean 	19.727272727273
scalar Network.dyn_peer[280] 	lookupTimeSig:mean 	1.2090909090909
scalar Network.dyn_peer[280] 	lookupStabilitySig:mean 	0.7245533508037
scalar Network.dyn_peer[280] 	lookupHopsSig:mean 	11.181818181818
scalar Network.dyn_peer[281] 	lookupTimeSig:mean 	1.9
scalar Network.dyn_peer[281] 	lookupStabilitySig:mean 	-0.27777783572674
scalar Network.dyn_peer[281] 	lookupHopsSig:mean 	18.5
scalar Network.dyn_peer[282] 	lookupTimeSig:mean 	1.65
scalar Network.dyn_peer[282] 	lookupStabilitySig:mean 	0.26176472753286
scalar Network.dyn_peer[282] 	lookupHopsSig:mean 	16
scalar Network.dyn_peer[283] 	lookupTimeSig:mean 	2.3
scalar Network.dyn_peer[283] 	lookupStabilitySig:mean 	0.29604043997824
scalar Network.dyn_peer[283] 	lookupHopsSig:mean 	22.25
scalar Network.dyn_peer[284] 	lookupTimeSig:mean 	2.9
scalar Network.dyn_peer[284] 	lookupStabilitySig:mean 	0.41944444179535
scalar Network.dyn_peer[284] 	lookupHopsSig:mean 	28.5
scalar Network.dyn_peer[285] 	lookupTimeSig:mean 	3.5
scalar Network.dyn_peer[285] 	lookupStabilitySig:mean 	0.38870433717966
scalar Network.dyn_peer[285] 	lookupHopsSig:mean 	34.5
scalar Network.dyn_peer[286] 	lookupTimeSig:mean 	1.4076923076923
scalar Network.dyn_peer[286] 	lookupStabilitySig:mean 	0.76714862768467
scalar Network.dyn_peer[286] 	lookupHopsSig:mean 	13.153846153846
scalar Network.dyn_peer[287] 	lookupTimeSig:mean 	2.75
scalar Network.dyn_peer[287] 	lookupStabilitySig:mean 	0.73125296551734
scalar Network.dyn_peer[287] 	lookupHopsSig:mean 	26.75
scalar Network.dyn_peer[288] 	lookupTimeSig:mean 	3.75
scalar Network.dyn_peer[288] 	lookupStabilitySig:mean 	0.79019607231021
scalar Network.dyn_peer[288] 	lookupHopsSig:mean 	37
scalar Network.dyn_peer[289] 	lookupTimeSig:mean 	1.74
scalar Network.dyn_peer[289] 	lookupStabilitySig:mean 	0.50865294039249
scalar Network.dyn_peer[289] 	lookupHopsSig:mean 	16.6
scalar Network.dyn_peer[290] 	lookupTimeSig:mean 	2.35
scalar Network.dyn_peer[290] 	lookupStabilitySig:mean 	0.58454544842243
scalar Network.dyn_peer[290] 	lookupHopsSig:mean 	23
scalar Network.dyn_peer[291] 	lookupTimeSig:mean 	1.8875
scalar Network.dyn_peer[291] 	lookupStabilitySig:mean 	0.76867123972625
scalar Network.dyn_peer[291] 	lookupHopsSig:mean 	18
scalar Network.dyn_peer[292] 	lookupTimeSig:mean 	1.675
scalar Network.dyn_peer[292] 	lookupStabilitySig:mean 	0.88762178178877
scalar Network.dyn_peer[292] 	lookupHopsSig:mean 	15.875
scalar Network.dyn_peer[293] 	lookupTimeSig:mean 	2.0625
scalar Network.dyn_peer[293] 	lookupStabilitySig:mean 	0.88346720999107
scalar Network.dyn_peer[293] 	lookupHopsSig:mean 	19.75
scalar Network.dyn_peer[294] 	lookupTimeSig:mean 	3.325
scalar Network.dyn_peer[294] 	lookupStabilitySig:mean 	0.69890984334052
scalar Network.dyn_peer[294] 	lookupHopsSig:mean 	32.5
scalar Network.dyn_peer[295] 	lookupTimeSig:mean 	1.49
scalar Network.dyn_peer[295] 	lookupStabilitySig:mean 	0.90708160828799
scalar Network.dyn_peer[295] 	lookupHopsSig:mean 	14
scalar Network.dyn_peer[296] 	lookupTimeSig:mean 	1.2
scalar Network.dyn_peer[296] 	lookupStabilitySig:mean 	0.18439716100693
scalar Network.dyn_peer[296] 	lookupHopsSig:mean 	11.333333333333
scalar Network.dyn_peer[297] 	lookupTimeSig:mean 	1.7833333333333
scalar Network.dyn_peer[297] 	lookupStabilitySig:mean 	0.61108529722939
scalar Network.dyn_peer[297] 	lookupHopsSig:mean 	17
scalar Network.dyn_peer[298] 	lookupTimeSig:mean 	1.2571428571429
scalar Network.dyn_peer[298] 	lookupStabilitySig:mean 	0.76465539717382
scalar Network.dyn_peer[298] 	lookupHopsSig:mean 	11.714285714286
scalar Network.dyn_peer[299] 	lookupTimeSig:mean 	1.6416666666667
scalar Network.dyn_peer[299] 	lookupStabilitySig:mean 	0.83551546634408
scalar Network.dyn_peer[299] 	lookupHopsSig:mean 	15.5
scalar Network.dyn_peer[300] 	lookupTimeSig:mean 	1.15
scalar Network.dyn_peer[300] 	lookupStabilitySig:mean 	0.64521692949347
scalar Network.dyn_peer[300] 	lookupHopsSig:mean 	10.625
scalar Network.dyn_peer[301] 	lookupTimeSig:mean 	1.5125
scalar Network.dyn_peer[301] 	lookupStabilitySig:mean 	0.85560151463142
scalar Network.dyn_peer[301] 	lookupHopsSig:mean 	14.25
scalar Network.dyn_peer[302] 	lookupTimeSig:mean 	1.8166666666667
scalar Network.dyn_peer[302] 	lookupStabilitySig:mean 	0.58378796993444
scalar Network.dyn_peer[302] 	lookupHopsSig:mean 	17.333333333333
scalar Network.dyn_peer[303] 	lookupTimeSig:mean 	1.54
scalar Network.dyn_peer[303] 	lookupStabilitySig:mean 	0.86026949007064
scalar Network.dyn_peer[303] 	lookupHopsSig:mean 	14.6
scalar Network.dyn_peer[304] 	lookupTimeSig:mean 	1.5333333333333
scalar Network.dyn_peer[304] 	lookupStabilitySig:mean 	0.16242199142774
scalar Network.dyn_peer[304] 	lookupHopsSig:mean 	14.666666666667
scalar Network.dyn_peer[305] 	lookupTimeSig:mean 	1.14
scalar Network.dyn_peer[305] 	lookupStabilitySig:mean 	0.48370436877012
scalar Network.dyn_peer[305] 	lookupHopsSig:mean 	10.6
scalar Network.dyn_peer[306] 	lookupTimeSig:mean 	2.7
scalar Network.dyn_peer[306] 	lookupStabilitySig:mean 	0.61306520365179
scalar Network.dyn_peer[306] 	lookupHopsSig:mean 	26.166666666667
scalar Network.dyn_peer[307] 	lookupTimeSig:mean 	1.7
scalar Network.dyn_peer[307] 	lookupStabilitySig:mean 	0.81145555898547
scalar Network.dyn_peer[307] 	lookupHopsSig:mean 	16.2
scalar Network.dyn_peer[308] 	lookupTimeSig:mean 	1.78
scalar Network.dyn_peer[308] 	lookupStabilitySig:mean 	0.80321688950062
scalar Network.dyn_peer[308] 	lookupHopsSig:mean 	17
scalar Network.dyn_peer[309] 	lookupTimeSig:mean 	1.56
scalar Network.dyn_peer[309] 	lookupStabilitySig:mean 	0.8106009349227
scalar Network.dyn_peer[309] 	lookupHopsSig:mean 	14.8
scalar Network.dyn_peer[310] 	lookupTimeSig:mean 	2.3285714285714
scalar Network.dyn_peer[310] 	lookupStabilitySig:mean 	0.90786244161427
scalar Network.dyn_peer[310] 	lookupHopsSig:mean 	22.428571428571
scalar Network.dyn_peer[311] 	lookupTimeSig:mean 	2.4666666666667
scalar Network.dyn_peer[311] 	lookupStabilitySig:mean 	0.36129943529765
scalar Network.dyn_peer[311] 	lookupHopsSig:mean 	24
scalar Network.dyn_peer[312] 	lookupTimeSig:mean 	1.83
scalar Network.dyn_peer[312] 	lookupStabilitySig:mean 	0.8597660639789
scalar Network.dyn_peer[312] 	lookupHopsSig:mean 	17.4
scalar Network.dyn_peer[313] 	lookupTimeSig:mean 	1.6875
scalar Network.dyn_peer[313] 	lookupStabilitySig:mean 	0.72885488701286
scalar Network.dyn_peer[313] 	lookupHopsSig:mean 	16
scalar Network.dyn_peer[314] 	lookupTimeSig:mean 	1.6
scalar Network.dyn_peer[314] 	lookupStabilitySig:mean 	0.27679025133451
scalar Network.dyn_peer[314] 	lookupHopsSig:mean 	15.333333333333
scalar Network.dyn_peer[315] 	lookupTimeSig:mean 	1.5555555555556
scalar Network.dyn_peer[315] 	lookupStabilitySig:mean 	0.84227642127209
scalar Network.dyn_peer[315] 	lookupHopsSig:mean 	14.666666666667
scalar Network.dyn_peer[316] 	lookupTimeSig:mean 	1.4333333333333
scalar Network.dyn_peer[316] 	lookupStabilitySig:mean 	0.58195724214117
scalar Network.dyn_peer[316] 	lookupHopsSig:mean 	13.5
scalar Network.dyn_peer[317] 	lookupTimeSig:mean 	1.94
scalar Network.dyn_peer[317] 	lookupStabilitySig:mean 	0.83406084161252
scalar Network.dyn_peer[317] 	lookupHopsSig:mean 	18.6
scalar Network.dyn_peer[318] 	lookupTimeSig:mean 	2
scalar Network.dyn_peer[318] 	lookupStabilitySig:mean 	0.54551395649711
scalar Network.dyn_peer[318] 	lookupHopsSig:mean 	19.166666666667
scalar Network.dyn_peer[319] 	lookupTimeSig:mean 	1.45
scalar Network.dyn_peer[319] 	lookupStabilitySig:mean 	0.75427867285907
scalar Network.dyn_peer[319] 	lookupHopsSig:mean 	13.75
scalar Network.dyn_peer[320] 	lookupTimeSig:mean 	1.4
scalar Network.dyn_peer[320] 	lookupStabilitySig:mean 	0.66982747279108
scalar Network.dyn_peer[320] 	lookupHopsSig:mean 	13.2
scalar Network.dyn_peer[321] 	lookupTimeSig:mean 	2.24
scalar Network.dyn_peer[321] 	lookupStabilitySig:mean 	0.77831940576434
scalar Network.dyn_peer[321] 	lookupHopsSig:mean 	21.6
scalar Network.dyn_peer[322] 	lookupTimeSig:mean 	1.8375
scalar Network.dyn_peer[322] 	lookupStabilitySig:mean 	0.73653151246253
scalar Network.dyn_peer[322] 	lookupHopsSig:mean 	17.5
scalar Network.dyn_peer[323] 	lookupTimeSig:mean 	1.6666666666667
scalar Network.dyn_peer[323] 	lookupStabilitySig:mean 	0.23556909958522
scalar Network.dyn_peer[323] 	lookupHopsSig:mean 	16
scalar Network.dyn_peer[324] 	lookupTimeSig:mean 	3.2
scalar Network.dyn_peer[324] 	lookupStabilitySig:mean 	0.76998039195314
scalar Network.dyn_peer[324] 	lookupHopsSig:mean 	31.25
scalar Network.dyn_peer[325] 	lookupTimeSig:mean 	1.9
scalar Network.dyn_peer[325] 	lookupStabilitySig:mean 	-0.14120370149612
scalar Network.dyn_peer[325] 	lookupHopsSig:mean 	18.5
scalar Network.dyn_peer[326] 	lookupTimeSig:mean 	1.4142857142857
scalar Network.dyn_peer[326] 	lookupStabilitySig:mean 	0.86005171215428
scalar Network.dyn_peer[326] 	lookupHopsSig:mean 	13.285714285714
scalar Network.dyn_peer[327] 	lookupTimeSig:mean 	1.4857142857143
scalar Network.dyn_peer[327] 	lookupStabilitySig:mean 	0.856529317131
scalar Network.dyn_peer[327] 	lookupHopsSig:mean 	14
scalar Network.dyn_peer[328] 	lookupTimeSig:mean 	2.6
scalar Network.dyn_peer[328] 	lookupStabilitySig:mean 	0.8931193690747
scalar Network.dyn_peer[328] 	lookupHopsSig:mean 	25.2
scalar Network.dyn_peer[329] 	lookupTimeSig:mean 	2.7666666666667
scalar Network.dyn_peer[329] 	lookupStabilitySig:mean 	0.73595806583762
scalar Network.dyn_peer[329] 	lookupHopsSig:mean 	27
scalar Network.dyn_peer[330] 	lookupTimeSig:mean 	2.2
scalar Network.dyn_peer[330] 	lookupStabilitySig:mean 	0.13587834437688
scalar Network.dyn_peer[330] 	lookupHopsSig:mean 	21.333333333333
scalar Network.dyn_peer[331] 	lookupTimeSig:mean 	2.0666666666667
scalar Network.dyn_peer[331] 	lookupStabilitySig:mean 	0.51844885324438
scalar Network.dyn_peer[331] 	lookupHopsSig:mean 	20
scalar Network.dyn_peer[332] 	lookupTimeSig:mean 	1.1833333333333
scalar Network.dyn_peer[332] 	lookupStabilitySig:mean 	0.7837596401417
scalar Network.dyn_peer[332] 	lookupHopsSig:mean 	10.916666666667
scalar Network.dyn_peer[333] 	lookupTimeSig:mean 	1.8111111111111
scalar Network.dyn_peer[333] 	lookupStabilitySig:mean 	0.91141807546632
scalar Network.dyn_peer[333] 	lookupHopsSig:mean 	17.222222222222
scalar Network.dyn_peer[334] 	lookupTimeSig:mean 	1.425
scalar Network.dyn_peer[334] 	lookupStabilitySig:mean 	0.91148749302374
scalar Network.dyn_peer[334] 	lookupHopsSig:mean 	13.333333333333
scalar Network.dyn_peer[335] 	lookupTimeSig:mean 	2.875
scalar Network.dyn_peer[335] 	lookupStabilitySig:mean 	0.89311318146065
scalar Network.dyn_peer[335] 	lookupHopsSig:mean 	28
scalar Network.dyn_peer[336] 	lookupTimeSig:mean 	1.5875
scalar Network.dyn_peer[336] 	lookupStabilitySig:mean 	0.8313029478013
scalar Network.dyn_peer[336] 	lookupHopsSig:mean 	15
scalar Network.dyn_peer[337] 	lookupTimeSig:mean 	2.4
scalar Network.dyn_peer[337] 	lookupStabilitySig:mean 	0.92328804552866
scalar Network.dyn_peer[337] 	lookupHopsSig:mean 	23.166666666667
scalar Network.dyn_peer[338] 	lookupTimeSig:mean 	1.4
scalar Network.dyn_peer[338] 	lookupStabilitySig:mean 	0.87578304730622
scalar Network.dyn_peer[338] 	lookupHopsSig:mean 	13.142857142857
scalar Network.dyn_peer[339] 	lookupTimeSig:mean 	0.8
scalar Network.dyn_peer[339] 	lookupStabilitySig:mean 	0.59531213981765
scalar Network.dyn_peer[339] 	lookupHopsSig:mean 	7.1428571428571
scalar Network.dyn_peer[340] 	lookupTimeSig:mean 	1.5416666666667
scalar Network.dyn_peer[340] 	lookupStabilitySig:mean 	0.81556219200138
scalar Network.dyn_peer[340] 	lookupHopsSig:mean 	14.5
scalar Network.dyn_peer[341] 	lookupTimeSig:mean 	1.275
scalar Network.dyn_peer[341] 	lookupStabilitySig:mean 	0.87550250782321
scalar Network.dyn_peer[341] 	lookupHopsSig:mean 	11.833333333333
scalar Network.dyn_peer[342] 	lookupTimeSig:mean 	1.8285714285714
scalar Network.dyn_peer[342] 	lookupStabilitySig:mean 	0.79393711380128
scalar Network.dyn_peer[342] 	lookupHopsSig:mean 	17.428571428571
scalar Network.dyn_peer[343] 	lookupTimeSig:mean 	1.2875
scalar Network.dyn_peer[343] 	lookupStabilitySig:mean 	0.86859006772283
scalar Network.dyn_peer[343] 	lookupHopsSig:mean 	12
scalar Network.dyn_peer[344] 	lookupTimeSig:mean 	1.3555555555556
scalar Network.dyn_peer[344] 	lookupStabilitySig:mean 	0.89344448254754
scalar Network.dyn_peer[344] 	lookupHopsSig:mean 	12.666666666667
scalar Network.dyn_peer[345] 	lookupTimeSig:mean 	1.66
scalar Network.dyn_peer[345] 	lookupStabilitySig:mean 	0.51282963305712
scalar Network.dyn_peer[345] 	lookupHopsSig:mean 	15.8
scalar Network.dyn_peer[346] 	lookupTimeSig:mean 	1.55
scalar Network.dyn_peer[346] 	lookupStabilitySig:mean 	0.76695392901699
scalar Network.dyn_peer[346] 	lookupHopsSig:mean 	14.666666666667
scalar Network.dyn_peer[347] 	lookupTimeSig:mean 	1.4375
scalar Network.dyn_peer[347] 	lookupStabilitySig:mean 	0.82222651736811
scalar Network.dyn_peer[347] 	lookupHopsSig:mean 	13.5
scalar Network.dyn_peer[348] 	lookupTimeSig:mean 	1.15
scalar Network.dyn_peer[348] 	lookupStabilitySig:mean 	0.37394957616925
scalar Network.dyn_peer[348] 	lookupHopsSig:mean 	10.75
scalar Network.dyn_peer[349] 	lookupTimeSig:mean 	2.15
scalar Network.dyn_peer[349] 	lookupStabilitySig:mean 	0.65281726140529
scalar Network.dyn_peer[349] 	lookupHopsSig:mean 	20.75
scalar Network.dyn_peer[350] 	lookupTimeSig:mean 	1.775
scalar Network.dyn_peer[350] 	lookupStabilitySig:mean 	0.67303126864135
scalar Network.dyn_peer[350] 	lookupHopsSig:mean 	17
scalar Network.dyn_peer[351] 	lookupTimeSig:mean 	1.4428571428571
scalar Network.dyn_peer[351] 	lookupStabilitySig:mean 	0.760191497526
scalar Network.dyn_peer[351] 	lookupHopsSig:mean 	13.571428571429
scalar Network.dyn_peer[352] 	lookupTimeSig:mean 	2.225
scalar Network.dyn_peer[352] 	lookupStabilitySig:mean 	0.4536722349003
scalar Network.dyn_peer[352] 	lookupHopsSig:mean 	21.5
scalar Network.dyn_peer[353] 	lookupTimeSig:mean 	1.18
scalar Network.dyn_peer[353] 	lookupStabilitySig:mean 	0.4275609832257
scalar Network.dyn_peer[353] 	lookupHopsSig:mean 	11
scalar Network.dyn_peer[354] 	lookupTimeSig:mean 	1.9125
scalar Network.dyn_peer[354] 	lookupStabilitySig:mean 	0.93074138823431
scalar Network.dyn_peer[354] 	lookupHopsSig:mean 	18.25
scalar Network.dyn_peer[355] 	lookupTimeSig:mean 	2
scalar Network.dyn_peer[355] 	lookupStabilitySig:mean 	0.89833746582735
scalar Network.dyn_peer[355] 	lookupHopsSig:mean 	19.125
scalar Network.dyn_peer[356] 	lookupTimeSig:mean 	2.35
scalar Network.dyn_peer[356] 	lookupStabilitySig:mean 	0.85788611213987
scalar Network.dyn_peer[356] 	lookupHopsSig:mean 	22.666666666667
scalar Network.dyn_peer[357] 	lookupTimeSig:mean 	2.25
scalar Network.dyn_peer[357] 	lookupStabilitySig:mean 	0.32634888589382
scalar Network.dyn_peer[357] 	lookupHopsSig:mean 	22
scalar Network.dyn_peer[358] 	lookupTimeSig:mean 	1.2571428571429
scalar Network.dyn_peer[358] 	lookupStabilitySig:mean 	0.62397430517844
scalar Network.dyn_peer[358] 	lookupHopsSig:mean 	11.714285714286
scalar Network.dyn_peer[359] 	lookupTimeSig:mean 	1.325
scalar Network.dyn_peer[359] 	lookupStabilitySig:mean 	0.36505648680031
scalar Network.dyn_peer[359] 	lookupHopsSig:mean 	12.5
scalar Network.dyn_peer[360] 	lookupTimeSig:mean 	2.92
scalar Network.dyn_peer[360] 	lookupStabilitySig:mean 	0.73048643320799
scalar Network.dyn_peer[360] 	lookupHopsSig:mean 	28.4
scalar Network.dyn_peer[361] 	lookupTimeSig:mean 	1.2
scalar Network.dyn_peer[361] 	lookupStabilitySig:mean 	0.61554358974099
scalar Network.dyn_peer[361] 	lookupHopsSig:mean 	11.2
scalar Network.dyn_peer[362] 	lookupTimeSig:mean 	1.5
scalar Network.dyn_peer[362] 	lookupStabilitySig:mean 	0.85848352286432
scalar Network.dyn_peer[362] 	lookupHopsSig:mean 	14.142857142857
scalar Network.dyn_peer[363] 	lookupTimeSig:mean 	1.5642857142857
scalar Network.dyn_peer[363] 	lookupStabilitySig:mean 	0.93709457190042
scalar Network.dyn_peer[363] 	lookupHopsSig:mean 	14.714285714286
scalar Network.dyn_peer[364] 	lookupTimeSig:mean 	1.375
scalar Network.dyn_peer[364] 	lookupStabilitySig:mean 	0.83831760962494
scalar Network.dyn_peer[364] 	lookupHopsSig:mean 	12.875
scalar Network.dyn_peer[365] 	lookupTimeSig:mean 	1.275
scalar Network.dyn_peer[365] 	lookupStabilitySig:mean 	0.33006176352501
scalar Network.dyn_peer[365] 	lookupHopsSig:mean 	12
scalar Network.dyn_peer[366] 	lookupTimeSig:mean 	1.7333333333333
scalar Network.dyn_peer[366] 	lookupStabilitySig:mean 	0.22795260945956
scalar Network.dyn_peer[366] 	lookupHopsSig:mean 	16.666666666667
scalar Network.dyn_peer[367] 	lookupTimeSig:mean 	2.64
scalar Network.dyn_peer[367] 	lookupStabilitySig:mean 	0.47240600055084
scalar Network.dyn_peer[367] 	lookupHopsSig:mean 	25.6
scalar Network.dyn_peer[368] 	lookupTimeSig:mean 	2.3714285714286
scalar Network.dyn_peer[368] 	lookupStabilitySig:mean 	0.84439105034939
scalar Network.dyn_peer[368] 	lookupHopsSig:mean 	22.857142857143
scalar Network.dyn_peer[369] 	lookupTimeSig:mean 	3
scalar Network.dyn_peer[369] 	lookupStabilitySig:mean 	0.37391277588904
scalar Network.dyn_peer[369] 	lookupHopsSig:mean 	29.25
scalar Network.dyn_peer[370] 	lookupTimeSig:mean 	1.22
scalar Network.dyn_peer[370] 	lookupStabilitySig:mean 	0.4212465018034
scalar Network.dyn_peer[370] 	lookupHopsSig:mean 	11.4
scalar Network.dyn_peer[371] 	lookupTimeSig:mean 	1.92
scalar Network.dyn_peer[371] 	lookupStabilitySig:mean 	0.91380782397464
scalar Network.dyn_peer[371] 	lookupHopsSig:mean 	18.3
scalar Network.dyn_peer[372] 	lookupTimeSig:mean 	1.7230769230769
scalar Network.dyn_peer[372] 	lookupStabilitySig:mean 	0.94070825500127
scalar Network.dyn_peer[372] 	lookupHopsSig:mean 	16.307692307692
scalar Network.dyn_peer[373] 	lookupTimeSig:mean 	2.95
scalar Network.dyn_peer[373] 	lookupStabilitySig:mean 	0.78833785140887
scalar Network.dyn_peer[373] 	lookupHopsSig:mean 	28.75
scalar Network.dyn_peer[374] 	lookupTimeSig:mean 	1.8666666666667
scalar Network.dyn_peer[374] 	lookupStabilitySig:mean 	0.58311701069276
scalar Network.dyn_peer[374] 	lookupHopsSig:mean 	18
scalar Network.dyn_peer[375] 	lookupTimeSig:mean 	1.9142857142857
scalar Network.dyn_peer[375] 	lookupStabilitySig:mean 	0.79850901397211
scalar Network.dyn_peer[375] 	lookupHopsSig:mean 	18.285714285714
scalar Network.dyn_peer[376] 	lookupTimeSig:mean 	1.95
scalar Network.dyn_peer[376] 	lookupStabilitySig:mean 	0.68526591500267
scalar Network.dyn_peer[376] 	lookupHopsSig:mean 	18.75
scalar Network.dyn_peer[377] 	lookupTimeSig:mean 	2.4
scalar Network.dyn_peer[377] 	lookupStabilitySig:mean 	0.67033049045131
scalar Network.dyn_peer[377] 	lookupHopsSig:mean 	23.25
scalar Network.dyn_peer[378] 	lookupTimeSig:mean 	1.69
scalar Network.dyn_peer[378] 	lookupStabilitySig:mean 	0.92100602218416
scalar Network.dyn_peer[378] 	lookupHopsSig:mean 	16
scalar Network.dyn_peer[379] 	lookupTimeSig:mean 	1.0833333333333
scalar Network.dyn_peer[379] 	lookupStabilitySig:mean 	0.73687457479537
scalar Network.dyn_peer[379] 	lookupHopsSig:mean 	10
scalar Network.dyn_peer[380] 	lookupTimeSig:mean 	1.43
scalar Network.dyn_peer[380] 	lookupStabilitySig:mean 	0.73690040130168
scalar Network.dyn_peer[380] 	lookupHopsSig:mean 	13.4
scalar Network.dyn_peer[381] 	lookupTimeSig:mean 	1.6571428571429
scalar Network.dyn_peer[381] 	lookupStabilitySig:mean 	0.87563327074583
scalar Network.dyn_peer[381] 	lookupHopsSig:mean 	15.714285714286
scalar Network.dyn_peer[382] 	lookupTimeSig:mean 	1.72
scalar Network.dyn_peer[382] 	lookupStabilitySig:mean 	0.55267639160156
scalar Network.dyn_peer[382] 	lookupHopsSig:mean 	16.4
scalar Network.dyn_peer[383] 	lookupTimeSig:mean 	1.075
scalar Network.dyn_peer[383] 	lookupStabilitySig:mean 	0.42945204302669
scalar Network.dyn_peer[383] 	lookupHopsSig:mean 	10
scalar Network.dyn_peer[384] 	lookupTimeSig:mean 	2.0857142857143
scalar Network.dyn_peer[384] 	lookupStabilitySig:mean 	0.89344461568232
scalar Network.dyn_peer[384] 	lookupHopsSig:mean 	20
scalar Network.dyn_peer[385] 	lookupTimeSig:mean 	1.54
scalar Network.dyn_peer[385] 	lookupStabilitySig:mean 	0.48080599531531
scalar Network.dyn_peer[385] 	lookupHopsSig:mean 	14.6
scalar Network.dyn_peer[386] 	lookupTimeSig:mean 	2.8
scalar Network.dyn_peer[386] 	lookupStabilitySig:mean 	0.35380117595196
scalar Network.dyn_peer[386] 	lookupHopsSig:mean 	27.5
scalar Network.dyn_peer[387] 	lookupTimeSig:mean 	2.1
scalar Network.dyn_peer[387] 	lookupStabilitySig:mean 	0.60145145002753
scalar Network.dyn_peer[387] 	lookupHopsSig:mean 	20.25
scalar Network.dyn_peer[388] 	lookupTimeSig:mean 	1.4111111111111
scalar Network.dyn_peer[388] 	lookupStabilitySig:mean 	0.90839406377118
scalar Network.dyn_peer[388] 	lookupHopsSig:mean 	13.222222222222
scalar Network.dyn_peer[389] 	lookupTimeSig:mean 	2.3333333333333
scalar Network.dyn_peer[389] 	lookupStabilitySig:mean 	0.17276021838188
scalar Network.dyn_peer[389] 	lookupHopsSig:mean 	22.666666666667
scalar Network.dyn_peer[390] 	lookupTimeSig:mean 	2.25
scalar Network.dyn_peer[390] 	lookupStabilitySig:mean 	0.88187220785767
scalar Network.dyn_peer[390] 	lookupHopsSig:mean 	21.75
scalar Network.dyn_peer[391] 	lookupTimeSig:mean 	1.3
scalar Network.dyn_peer[391] 	lookupStabilitySig:mean 	0.84015698526055
scalar Network.dyn_peer[391] 	lookupHopsSig:mean 	12.1
scalar Network.dyn_peer[392] 	lookupTimeSig:mean 	1.4111111111111
scalar Network.dyn_peer[392] 	lookupStabilitySig:mean 	0.77971137910047
scalar Network.dyn_peer[392] 	lookupHopsSig:mean 	13.222222222222
scalar Network.dyn_peer[393] 	lookupTimeSig:mean 	2.06
scalar Network.dyn_peer[393] 	lookupStabilitySig:mean 	0.66841873750091
scalar Network.dyn_peer[393] 	lookupHopsSig:mean 	19.8
scalar Network.dyn_peer[394] 	lookupTimeSig:mean 	1.4857142857143
scalar Network.dyn_peer[394] 	lookupStabilitySig:mean 	0.65014696640096
scalar Network.dyn_peer[394] 	lookupHopsSig:mean 	14
scalar Network.dyn_peer[395] 	lookupTimeSig:mean 	1.7625
scalar Network.dyn_peer[395] 	lookupStabilitySig:mean 	0.69105727691203
scalar Network.dyn_peer[395] 	lookupHopsSig:mean 	16.75
scalar Network.dyn_peer[396] 	lookupTimeSig:mean 	2.95
scalar Network.dyn_peer[396] 	lookupStabilitySig:mean 	0.40662202984095
scalar Network.dyn_peer[396] 	lookupHopsSig:mean 	29
scalar Network.dyn_peer[397] 	lookupTimeSig:mean 	2.5
scalar Network.dyn_peer[397] 	lookupStabilitySig:mean 	0.77064915373921
scalar Network.dyn_peer[397] 	lookupHopsSig:mean 	24.25
scalar Network.dyn_peer[398] 	lookupTimeSig:mean 	2.95
scalar Network.dyn_peer[398] 	lookupStabilitySig:mean 	0.89507921459153
scalar Network.dyn_peer[398] 	lookupHopsSig:mean 	28.75
scalar Network.dyn_peer[399] 	lookupTimeSig:mean 	2.16
scalar Network.dyn_peer[399] 	lookupStabilitySig:mean 	0.7356855167076
scalar Network.dyn_peer[399] 	lookupHopsSig:mean 	20.8
scalar Network.dyn_peer[400] 	lookupTimeSig:mean 	1.375
scalar Network.dyn_peer[400] 	lookupStabilitySig:mean 	0.49154762364924
scalar Network.dyn_peer[400] 	lookupHopsSig:mean 	13
scalar Network.dyn_peer[401] 	lookupTimeSig:mean 	2.4
scalar Network.dyn_peer[401] 	lookupStabilitySig:mean 	0.58914965639512
scalar Network.dyn_peer[401] 	lookupHopsSig:mean 	23.333333333333
scalar Network.dyn_peer[402] 	lookupTimeSig:mean 	2.8
scalar Network.dyn_peer[402] 	lookupStabilitySig:mean 	0.53360748291016
scalar Network.dyn_peer[402] 	lookupHopsSig:mean 	27.5
scalar Network.dyn_peer[403] 	lookupTimeSig:mean 	6.25
scalar Network.dyn_peer[403] 	lookupStabilitySig:mean 	0.84773435816169
scalar Network.dyn_peer[403] 	lookupHopsSig:mean 	62
scalar Network.dyn_peer[404] 	lookupTimeSig:mean 	1.1428571428571
scalar Network.dyn_peer[404] 	lookupStabilitySig:mean 	0.76399960368872
scalar Network.dyn_peer[404] 	lookupHopsSig:mean 	10.571428571429
scalar Network.dyn_peer[405] 	lookupTimeSig:mean 	1.0923076923077
scalar Network.dyn_peer[405] 	lookupStabilitySig:mean 	0.81796650914475
scalar Network.dyn_peer[405] 	lookupHopsSig:mean 	10
scalar Network.dyn_peer[406] 	lookupTimeSig:mean 	2.14
scalar Network.dyn_peer[406] 	lookupStabilitySig:mean 	0.72581738829613
scalar Network.dyn_peer[406] 	lookupHopsSig:mean 	20.6
scalar Network.dyn_peer[407] 	lookupTimeSig:mean 	2.3666666666667
scalar Network.dyn_peer[407] 	lookupStabilitySig:mean 	0.28560387094816
scalar Network.dyn_peer[407] 	lookupHopsSig:mean 	23
scalar Network.dyn_peer[408] 	lookupTimeSig:mean 	1.4
scalar Network.dyn_peer[408] 	lookupStabilitySig:mean 	0.63232521247119
scalar Network.dyn_peer[408] 	lookupHopsSig:mean 	13.25
scalar Network.dyn_peer[409] 	lookupTimeSig:mean 	1.6142857142857
scalar Network.dyn_peer[409] 	lookupStabilitySig:mean 	0.80295416300318
scalar Network.dyn_peer[409] 	lookupHopsSig:mean 	15.285714285714
scalar Network.dyn_peer[410] 	lookupTimeSig:mean 	1.425
scalar Network.dyn_peer[410] 	lookupStabilitySig:mean 	0.79268041532487
scalar Network.dyn_peer[410] 	lookupHopsSig:mean 	13.375
scalar Network.dyn_peer[411] 	lookupTimeSig:mean 	1.675
scalar Network.dyn_peer[411] 	lookupStabilitySig:mean 	0.85889394883998
scalar Network.dyn_peer[411] 	lookupHopsSig:mean 	15.875
scalar Network.dyn_peer[412] 	lookupTimeSig:mean 	1.775
scalar Network.dyn_peer[412] 	lookupStabilitySig:mean 	0.68296950869262
scalar Network.dyn_peer[412] 	lookupHopsSig:mean 	17
scalar Network.dyn_peer[413] 	lookupTimeSig:mean 	1.4285714285714
scalar Network.dyn_peer[413] 	lookupStabilitySig:mean 	0.76168371643871
scalar Network.dyn_peer[413] 	lookupHopsSig:mean 	13.428571428571
scalar Network.dyn_peer[414] 	lookupTimeSig:mean 	1.025
scalar Network.dyn_peer[414] 	lookupStabilitySig:mean 	0.34135127440095
scalar Network.dyn_peer[414] 	lookupHopsSig:mean 	9.5
scalar Network.dyn_peer[415] 	lookupTimeSig:mean 	1.3666666666667
scalar Network.dyn_peer[415] 	lookupStabilitySig:mean 	0.57898389175534
scalar Network.dyn_peer[415] 	lookupHopsSig:mean 	12.833333333333
scalar Network.dyn_peer[416] 	lookupTimeSig:mean 	1.9
scalar Network.dyn_peer[416] 	lookupStabilitySig:mean 	0.75230052769184
scalar Network.dyn_peer[416] 	lookupHopsSig:mean 	18.2
scalar Network.dyn_peer[417] 	lookupTimeSig:mean 	1.2
scalar Network.dyn_peer[417] 	lookupStabilitySig:mean 	0.91779984622686
scalar Network.dyn_peer[417] 	lookupHopsSig:mean 	11.090909090909
scalar Network.dyn_peer[418] 	lookupTimeSig:mean 	2.85
scalar Network.dyn_peer[418] 	lookupStabilitySig:mean 	0.28643241897225
scalar Network.dyn_peer[418] 	lookupHopsSig:mean 	27.75
scalar Network.dyn_peer[419] 	lookupTimeSig:mean 	1.7777777777778
scalar Network.dyn_peer[419] 	lookupStabilitySig:mean 	0.90710798578544
scalar Network.dyn_peer[419] 	lookupHopsSig:mean 	16.888888888889
scalar Network.dyn_peer[420] 	lookupTimeSig:mean 	2.4
scalar Network.dyn_peer[420] 	lookupStabilitySig:mean 	0.30086204409599
scalar Network.dyn_peer[420] 	lookupHopsSig:mean 	23.5
scalar Network.dyn_peer[421] 	lookupTimeSig:mean 	1.1333333333333
scalar Network.dyn_peer[421] 	lookupStabilitySig:mean 	0.40303030610085
scalar Network.dyn_peer[421] 	lookupHopsSig:mean 	10.666666666667
scalar Network.dyn_peer[422] 	lookupTimeSig:mean 	1.9166666666667
scalar Network.dyn_peer[422] 	lookupStabilitySig:mean 	0.92449417962537
[...]
scalar Network.dyn_peer[894] 	lookupHopsSig:mean 	18.5
scalar Network.dyn_peer[895] 	lookupTimeSig:mean 	2.2333333333333
scalar Network.dyn_peer[895] 	lookupStabilitySig:mean 	0.71482067058484
scalar Network.dyn_peer[895] 	lookupHopsSig:mean 	21.666666666667
scalar Network.dyn_peer[896] 	lookupTimeSig:mean 	2.1
scalar Network.dyn_peer[896] 	lookupStabilitySig:mean 	0.56542197614908
scalar Network.dyn_peer[896] 	lookupHopsSig:mean 	20.333333333333
scalar Network.dyn_peer[897] 	lookupTimeSig:mean 	1.7666666666667
scalar Network.dyn_peer[897] 	lookupStabilitySig:mean 	0.75075818846623
scalar Network.dyn_peer[897] 	lookupHopsSig:mean 	17
scalar Network.dyn_peer[898] 	lookupTimeSig:mean 	1.1
scalar Network.dyn_peer[898] 	lookupStabilitySig:mean 	0.81479152338579
scalar Network.dyn_peer[898] 	lookupHopsSig:mean 	10.166666666667
scalar Network.dyn_peer[899] 	lookupTimeSig:mean 	1.8333333333333
scalar Network.dyn_peer[899] 	lookupStabilitySig:mean 	0.92813083106497
scalar Network.dyn_peer[899] 	lookupHopsSig:mean 	17.416666666667
scalar Network.dyn_peer[900] 	lookupTimeSig:mean 	3.0833333333333
scalar Network.dyn_peer[900] 	lookupStabilitySig:mean 	0.93377159520363
scalar Network.dyn_peer[900] 	lookupHopsSig:mean 	30
scalar Network.dyn_peer[901] 	lookupTimeSig:mean 	1.825
scalar Network.dyn_peer[901] 	lookupStabilitySig:mean 	0.95739160472294
scalar Network.dyn_peer[901] 	lookupHopsSig:mean 	17.375
scalar Network.dyn_peer[902] 	lookupTimeSig:mean 	1.7181818181818
scalar Network.dyn_peer[902] 	lookupStabilitySig:mean 	0.94390735546635
scalar Network.dyn_peer[902] 	lookupHopsSig:mean 	16.272727272727
scalar Network.dyn_peer[903] 	lookupTimeSig:mean 	1.6444444444444
scalar Network.dyn_peer[903] 	lookupStabilitySig:mean 	0.86888398447384
scalar Network.dyn_peer[903] 	lookupHopsSig:mean 	15.555555555556
scalar Network.dyn_peer[904] 	lookupTimeSig:mean 	1.92
scalar Network.dyn_peer[904] 	lookupStabilitySig:mean 	0.80449794866145
scalar Network.dyn_peer[904] 	lookupHopsSig:mean 	18.4
scalar Network.dyn_peer[905] 	lookupTimeSig:mean 	1.8857142857143
scalar Network.dyn_peer[905] 	lookupStabilitySig:mean 	0.95066012082888
scalar Network.dyn_peer[905] 	lookupHopsSig:mean 	18
scalar Network.dyn_peer[906] 	lookupTimeSig:mean 	1.55
scalar Network.dyn_peer[906] 	lookupStabilitySig:mean 	0.62606291845441
scalar Network.dyn_peer[906] 	lookupHopsSig:mean 	14.75
scalar Network.dyn_peer[907] 	lookupTimeSig:mean 	2.075
scalar Network.dyn_peer[907] 	lookupStabilitySig:mean 	0.95280034776079
scalar Network.dyn_peer[907] 	lookupHopsSig:mean 	19.875
scalar Network.dyn_peer[908] 	lookupTimeSig:mean 	2.15
scalar Network.dyn_peer[908] 	lookupStabilitySig:mean 	0.17771738767624
scalar Network.dyn_peer[908] 	lookupHopsSig:mean 	21
scalar Network.dyn_peer[909] 	lookupTimeSig:mean 	2.325
scalar Network.dyn_peer[909] 	lookupStabilitySig:mean 	0.90549355139956
scalar Network.dyn_peer[909] 	lookupHopsSig:mean 	22.5
scalar Network.dyn_peer[910] 	lookupTimeSig:mean 	2.1857142857143
scalar Network.dyn_peer[910] 	lookupStabilitySig:mean 	0.82511723533805
scalar Network.dyn_peer[910] 	lookupHopsSig:mean 	21
scalar Network.dyn_peer[911] 	lookupTimeSig:mean 	3.46
scalar Network.dyn_peer[911] 	lookupStabilitySig:mean 	0.92310817018151
scalar Network.dyn_peer[911] 	lookupHopsSig:mean 	33.8
scalar Network.dyn_peer[912] 	lookupTimeSig:mean 	1.6071428571429
scalar Network.dyn_peer[912] 	lookupStabilitySig:mean 	0.93557739360923
scalar Network.dyn_peer[912] 	lookupHopsSig:mean 	15.142857142857
scalar Network.dyn_peer[913] 	lookupTimeSig:mean 	1.975
scalar Network.dyn_peer[913] 	lookupStabilitySig:mean 	0.72943563293666
scalar Network.dyn_peer[913] 	lookupHopsSig:mean 	19
scalar Network.dyn_peer[914] 	lookupTimeSig:mean 	1.1428571428571
scalar Network.dyn_peer[914] 	lookupStabilitySig:mean 	0.87645913800225
scalar Network.dyn_peer[914] 	lookupHopsSig:mean 	10.571428571429
scalar Network.dyn_peer[915] 	lookupTimeSig:mean 	1.44
scalar Network.dyn_peer[915] 	lookupStabilitySig:mean 	0.80062960200012
scalar Network.dyn_peer[915] 	lookupHopsSig:mean 	13.6
scalar Network.dyn_peer[916] 	lookupTimeSig:mean 	1
scalar Network.dyn_peer[916] 	lookupStabilitySig:mean 	0.80077112593095
scalar Network.dyn_peer[916] 	lookupHopsSig:mean 	9.0909090909091
scalar Network.dyn_peer[917] 	lookupTimeSig:mean 	2.8
scalar Network.dyn_peer[917] 	lookupStabilitySig:mean 	0.62531094625592
scalar Network.dyn_peer[917] 	lookupHopsSig:mean 	27.5
scalar Network.dyn_peer[918] 	lookupTimeSig:mean 	2.58
scalar Network.dyn_peer[918] 	lookupStabilitySig:mean 	0.92685649544001
scalar Network.dyn_peer[918] 	lookupHopsSig:mean 	25
scalar Network.dyn_peer[919] 	lookupTimeSig:mean 	1.6
scalar Network.dyn_peer[919] 	lookupStabilitySig:mean 	0.63186399452388
scalar Network.dyn_peer[919] 	lookupHopsSig:mean 	15.25
scalar Network.dyn_peer[920] 	lookupTimeSig:mean 	0.85
scalar Network.dyn_peer[920] 	lookupStabilitySig:mean 	0.25
scalar Network.dyn_peer[920] 	lookupHopsSig:mean 	8
scalar Network.dyn_peer[921] 	lookupTimeSig:mean 	1.6833333333333
scalar Network.dyn_peer[921] 	lookupStabilitySig:mean 	0.91427910995359
scalar Network.dyn_peer[921] 	lookupHopsSig:mean 	16
scalar Network.dyn_peer[922] 	lookupTimeSig:mean 	1.075
scalar Network.dyn_peer[922] 	lookupStabilitySig:mean 	0.57671004347503
scalar Network.dyn_peer[922] 	lookupHopsSig:mean 	10
scalar Network.dyn_peer[923] 	lookupTimeSig:mean 	2.3666666666667
scalar Network.dyn_peer[923] 	lookupStabilitySig:mean 	0.96881345085179
scalar Network.dyn_peer[923] 	lookupHopsSig:mean 	22.75
scalar Network.dyn_peer[924] 	lookupTimeSig:mean 	2.8
scalar Network.dyn_peer[924] 	lookupStabilitySig:mean 	0.37515394389629
scalar Network.dyn_peer[924] 	lookupHopsSig:mean 	27.5
scalar Network.dyn_peer[925] 	lookupTimeSig:mean 	1.3428571428571
scalar Network.dyn_peer[925] 	lookupStabilitySig:mean 	0.80366959742137
scalar Network.dyn_peer[925] 	lookupHopsSig:mean 	12.571428571429
scalar Network.dyn_peer[926] 	lookupTimeSig:mean 	1.9833333333333
scalar Network.dyn_peer[926] 	lookupStabilitySig:mean 	0.92411156681677
scalar Network.dyn_peer[926] 	lookupHopsSig:mean 	19
scalar Network.dyn_peer[927] 	lookupTimeSig:mean 	1.8
scalar Network.dyn_peer[927] 	lookupStabilitySig:mean 	0.94646552608659
scalar Network.dyn_peer[927] 	lookupHopsSig:mean 	17.111111111111
scalar Network.dyn_peer[928] 	lookupTimeSig:mean 	1.325
scalar Network.dyn_peer[928] 	lookupStabilitySig:mean 	0.88118488271721
scalar Network.dyn_peer[928] 	lookupHopsSig:mean 	12.375
scalar Network.dyn_peer[929] 	lookupTimeSig:mean 	4.1333333333333
scalar Network.dyn_peer[929] 	lookupStabilitySig:mean 	0.8868451093634
scalar Network.dyn_peer[929] 	lookupHopsSig:mean 	40.666666666667
scalar Network.dyn_peer[930] 	lookupTimeSig:mean 	3.25
scalar Network.dyn_peer[930] 	lookupStabilitySig:mean 	0.67910446226597
scalar Network.dyn_peer[930] 	lookupHopsSig:mean 	32
scalar Network.dyn_peer[931] 	lookupTimeSig:mean 	1.4818181818182
scalar Network.dyn_peer[931] 	lookupStabilitySig:mean 	0.95712400899819
scalar Network.dyn_peer[931] 	lookupHopsSig:mean 	13.909090909091
scalar Network.dyn_peer[932] 	lookupTimeSig:mean 	2.375
scalar Network.dyn_peer[932] 	lookupStabilitySig:mean 	0.86546731274575
scalar Network.dyn_peer[932] 	lookupHopsSig:mean 	23
scalar Network.dyn_peer[933] 	lookupTimeSig:mean 	2.4
scalar Network.dyn_peer[933] 	lookupStabilitySig:mean 	0.52597403526306
scalar Network.dyn_peer[933] 	lookupHopsSig:mean 	23.5
scalar Network.dyn_peer[934] 	lookupTimeSig:mean 	1.6428571428571
scalar Network.dyn_peer[934] 	lookupStabilitySig:mean 	0.86388635528939
scalar Network.dyn_peer[934] 	lookupHopsSig:mean 	15.571428571429
scalar Network.dyn_peer[935] 	lookupTimeSig:mean 	1.6357142857143
scalar Network.dyn_peer[935] 	lookupStabilitySig:mean 	0.93946632646423
scalar Network.dyn_peer[935] 	lookupHopsSig:mean 	15.428571428571
scalar Network.dyn_peer[936] 	lookupTimeSig:mean 	1.6555555555556
scalar Network.dyn_peer[936] 	lookupStabilitySig:mean 	0.92643818259239
scalar Network.dyn_peer[936] 	lookupHopsSig:mean 	15.666666666667
scalar Network.dyn_peer[937] 	lookupTimeSig:mean 	1.3777777777778
scalar Network.dyn_peer[937] 	lookupStabilitySig:mean 	0.91428015846759
scalar Network.dyn_peer[937] 	lookupHopsSig:mean 	12.888888888889
scalar Network.dyn_peer[938] 	lookupTimeSig:mean 	1.875
scalar Network.dyn_peer[938] 	lookupStabilitySig:mean 	0.91719419454845
scalar Network.dyn_peer[938] 	lookupHopsSig:mean 	17.833333333333
scalar Network.dyn_peer[939] 	lookupTimeSig:mean 	2.1285714285714
scalar Network.dyn_peer[939] 	lookupStabilitySig:mean 	0.88115788144725
scalar Network.dyn_peer[939] 	lookupHopsSig:mean 	20.428571428571
scalar Network.dyn_peer[940] 	lookupTimeSig:mean 	1.9
scalar Network.dyn_peer[940] 	lookupStabilitySig:mean 	0.48476190119982
scalar Network.dyn_peer[940] 	lookupHopsSig:mean 	18.5
scalar Network.dyn_peer[941] 	lookupTimeSig:mean 	1.5666666666667
scalar Network.dyn_peer[941] 	lookupStabilitySig:mean 	0.65361093481382
scalar Network.dyn_peer[941] 	lookupHopsSig:mean 	15
scalar Network.dyn_peer[942] 	lookupTimeSig:mean 	1.07
scalar Network.dyn_peer[942] 	lookupStabilitySig:mean 	0.86085431448882
scalar Network.dyn_peer[942] 	lookupHopsSig:mean 	9.8
scalar Network.dyn_peer[943] 	lookupTimeSig:mean 	1.6
scalar Network.dyn_peer[943] 	lookupStabilitySig:mean 	0.92444861377589
scalar Network.dyn_peer[943] 	lookupHopsSig:mean 	15.125
scalar Network.dyn_peer[944] 	lookupTimeSig:mean 	1.4416666666667
scalar Network.dyn_peer[944] 	lookupStabilitySig:mean 	0.89068904693704
scalar Network.dyn_peer[944] 	lookupHopsSig:mean 	13.5
scalar Network.dyn_peer[945] 	lookupTimeSig:mean 	2.5
scalar Network.dyn_peer[945] 	lookupStabilitySig:mean 	0.72834929525852
scalar Network.dyn_peer[945] 	lookupHopsSig:mean 	24.2
scalar Network.dyn_peer[946] 	lookupTimeSig:mean 	3.2
scalar Network.dyn_peer[946] 	lookupStabilitySig:mean 	0.50653914983074
scalar Network.dyn_peer[946] 	lookupHopsSig:mean 	31.333333333333
scalar Network.dyn_peer[947] 	lookupTimeSig:mean 	1.75
scalar Network.dyn_peer[947] 	lookupStabilitySig:mean 	0.81999244019389
scalar Network.dyn_peer[947] 	lookupHopsSig:mean 	16.6
scalar Network.dyn_peer[948] 	lookupTimeSig:mean 	1.7888888888889
scalar Network.dyn_peer[948] 	lookupStabilitySig:mean 	0.95838163053203
scalar Network.dyn_peer[948] 	lookupHopsSig:mean 	17
scalar Network.dyn_peer[949] 	lookupTimeSig:mean 	2.14
scalar Network.dyn_peer[949] 	lookupStabilitySig:mean 	0.77049945034087
scalar Network.dyn_peer[949] 	lookupHopsSig:mean 	20.6
scalar Network.dyn_peer[950] 	lookupTimeSig:mean 	3.15
scalar Network.dyn_peer[950] 	lookupStabilitySig:mean 	0.9404624113813
scalar Network.dyn_peer[950] 	lookupHopsSig:mean 	30.75
scalar Network.dyn_peer[951] 	lookupTimeSig:mean 	1.4818181818182
scalar Network.dyn_peer[951] 	lookupStabilitySig:mean 	0.8815182399174
scalar Network.dyn_peer[951] 	lookupHopsSig:mean 	13.909090909091
scalar Network.dyn_peer[952] 	lookupTimeSig:mean 	3.025
scalar Network.dyn_peer[952] 	lookupStabilitySig:mean 	0.80174334719777
scalar Network.dyn_peer[952] 	lookupHopsSig:mean 	29.5
scalar Network.dyn_peer[953] 	lookupTimeSig:mean 	2.7
scalar Network.dyn_peer[953] 	lookupStabilitySig:mean 	0.85087864100933
scalar Network.dyn_peer[953] 	lookupHopsSig:mean 	26.333333333333
scalar Network.dyn_peer[954] 	lookupTimeSig:mean 	1.95
scalar Network.dyn_peer[954] 	lookupStabilitySig:mean 	0.72277607768774
scalar Network.dyn_peer[954] 	lookupHopsSig:mean 	18.75
scalar Network.dyn_peer[955] 	lookupTimeSig:mean 	1.44
scalar Network.dyn_peer[955] 	lookupStabilitySig:mean 	0.86430990472436
scalar Network.dyn_peer[955] 	lookupHopsSig:mean 	13.6
scalar Network.dyn_peer[956] 	lookupTimeSig:mean 	1.84
scalar Network.dyn_peer[956] 	lookupStabilitySig:mean 	0.92519754823297
scalar Network.dyn_peer[956] 	lookupHopsSig:mean 	17.6
scalar Network.dyn_peer[957] 	lookupTimeSig:mean 	1.5909090909091
scalar Network.dyn_peer[957] 	lookupStabilitySig:mean 	0.95742321077904
scalar Network.dyn_peer[957] 	lookupHopsSig:mean 	15
scalar Network.dyn_peer[958] 	lookupTimeSig:mean 	2.1833333333333
scalar Network.dyn_peer[958] 	lookupStabilitySig:mean 	0.92979198507965
scalar Network.dyn_peer[958] 	lookupHopsSig:mean 	21
scalar Network.dyn_peer[959] 	lookupTimeSig:mean 	1.34
scalar Network.dyn_peer[959] 	lookupStabilitySig:mean 	0.77561437860131
scalar Network.dyn_peer[959] 	lookupHopsSig:mean 	12.6
scalar Network.dyn_peer[960] 	lookupTimeSig:mean 	1.7
scalar Network.dyn_peer[960] 	lookupStabilitySig:mean 	0.87182616635359
scalar Network.dyn_peer[960] 	lookupHopsSig:mean 	16.142857142857
scalar Network.dyn_peer[961] 	lookupTimeSig:mean 	2.25
scalar Network.dyn_peer[961] 	lookupStabilitySig:mean 	0.81128871720284
scalar Network.dyn_peer[961] 	lookupHopsSig:mean 	21.75
scalar Network.dyn_peer[962] 	lookupTimeSig:mean 	0.93333333333333
scalar Network.dyn_peer[962] 	lookupStabilitySig:mean 	0.4788647343715
scalar Network.dyn_peer[962] 	lookupHopsSig:mean 	8.6666666666667
scalar Network.dyn_peer[963] 	lookupTimeSig:mean 	0.9
scalar Network.dyn_peer[963] 	lookupStabilitySig:mean 	0.86302088625315
scalar Network.dyn_peer[963] 	lookupHopsSig:mean 	8.1111111111111
scalar Network.dyn_peer[964] 	lookupTimeSig:mean 	2.9
scalar Network.dyn_peer[964] 	lookupStabilitySig:mean 	0.54318182170391
scalar Network.dyn_peer[964] 	lookupHopsSig:mean 	28.5
scalar Network.dyn_peer[965] 	lookupTimeSig:mean 	3.1
scalar Network.dyn_peer[965] 	lookupStabilitySig:mean 	0.91624063393101
scalar Network.dyn_peer[965] 	lookupHopsSig:mean 	30.25
scalar Network.dyn_peer[966] 	lookupTimeSig:mean 	2.1333333333333
scalar Network.dyn_peer[966] 	lookupStabilitySig:mean 	0.93398972616221
scalar Network.dyn_peer[966] 	lookupHopsSig:mean 	20.444444444444
scalar Network.dyn_peer[967] 	lookupTimeSig:mean 	1.86
scalar Network.dyn_peer[967] 	lookupStabilitySig:mean 	0.90961553454399
scalar Network.dyn_peer[967] 	lookupHopsSig:mean 	17.8
scalar Network.dyn_peer[968] 	lookupTimeSig:mean 	2.68
scalar Network.dyn_peer[968] 	lookupStabilitySig:mean 	0.90666478024796
scalar Network.dyn_peer[968] 	lookupHopsSig:mean 	26
scalar Network.dyn_peer[969] 	lookupTimeSig:mean 	1.1
scalar Network.dyn_peer[969] 	lookupStabilitySig:mean 	0.6453514782091
scalar Network.dyn_peer[969] 	lookupHopsSig:mean 	10.333333333333
scalar Network.dyn_peer[970] 	lookupTimeSig:mean 	2.075
scalar Network.dyn_peer[970] 	lookupStabilitySig:mean 	0.8462293818593
scalar Network.dyn_peer[970] 	lookupHopsSig:mean 	20
scalar Network.dyn_peer[971] 	lookupTimeSig:mean 	2.475
scalar Network.dyn_peer[971] 	lookupStabilitySig:mean 	0.92262769769877
scalar Network.dyn_peer[971] 	lookupHopsSig:mean 	24
scalar Network.dyn_peer[972] 	lookupTimeSig:mean 	1.34
scalar Network.dyn_peer[972] 	lookupStabilitySig:mean 	0.73292387202382
scalar Network.dyn_peer[972] 	lookupHopsSig:mean 	12.6
scalar Network.dyn_peer[973] 	lookupTimeSig:mean 	2.2166666666667
scalar Network.dyn_peer[973] 	lookupStabilitySig:mean 	0.66981924014787
scalar Network.dyn_peer[973] 	lookupHopsSig:mean 	21.333333333333
scalar Network.dyn_peer[974] 	lookupTimeSig:mean 	1.35
scalar Network.dyn_peer[974] 	lookupStabilitySig:mean 	0.88845722645056
scalar Network.dyn_peer[974] 	lookupHopsSig:mean 	12.75
scalar Network.dyn_peer[975] 	lookupTimeSig:mean 	1.85
scalar Network.dyn_peer[975] 	lookupStabilitySig:mean 	0.88644356932491
scalar Network.dyn_peer[975] 	lookupHopsSig:mean 	17.75
scalar Network.dyn_peer[976] 	lookupTimeSig:mean 	1.8
scalar Network.dyn_peer[976] 	lookupStabilitySig:mean 	0.92189290087957
scalar Network.dyn_peer[976] 	lookupHopsSig:mean 	17.076923076923
scalar Network.dyn_peer[977] 	lookupTimeSig:mean 	2.76
scalar Network.dyn_peer[977] 	lookupStabilitySig:mean 	0.91741632893682
scalar Network.dyn_peer[977] 	lookupHopsSig:mean 	26.8
scalar Network.dyn_peer[978] 	lookupTimeSig:mean 	1.6545454545455
scalar Network.dyn_peer[978] 	lookupStabilitySig:mean 	0.96445064390586
scalar Network.dyn_peer[978] 	lookupHopsSig:mean 	15.636363636364
scalar Network.dyn_peer[979] 	lookupTimeSig:mean 	1.3538461538462
scalar Network.dyn_peer[979] 	lookupStabilitySig:mean 	0.83010734904271
scalar Network.dyn_peer[979] 	lookupHopsSig:mean 	12.615384615385
scalar Network.dyn_peer[980] 	lookupTimeSig:mean 	1.8777777777778
scalar Network.dyn_peer[980] 	lookupStabilitySig:mean 	0.91119580674503
scalar Network.dyn_peer[980] 	lookupHopsSig:mean 	17.888888888889
scalar Network.dyn_peer[981] 	lookupTimeSig:mean 	2.0833333333333
scalar Network.dyn_peer[981] 	lookupStabilitySig:mean 	0.63493974506855
scalar Network.dyn_peer[981] 	lookupHopsSig:mean 	20
scalar Network.dyn_peer[982] 	lookupTimeSig:mean 	1.1
scalar Network.dyn_peer[982] 	lookupStabilitySig:mean 	0.59149849414825
scalar Network.dyn_peer[982] 	lookupHopsSig:mean 	10.25
scalar Network.dyn_peer[983] 	lookupTimeSig:mean 	1.9
scalar Network.dyn_peer[983] 	lookupStabilitySig:mean 	0.60166854597628
scalar Network.dyn_peer[983] 	lookupHopsSig:mean 	18.25
scalar Network.dyn_peer[984] 	lookupTimeSig:mean 	3.04
scalar Network.dyn_peer[984] 	lookupStabilitySig:mean 	0.9465861460194
scalar Network.dyn_peer[984] 	lookupHopsSig:mean 	29.6
scalar Network.dyn_peer[985] 	lookupTimeSig:mean 	1.9615384615385
scalar Network.dyn_peer[985] 	lookupStabilitySig:mean 	0.97361582675232
scalar Network.dyn_peer[985] 	lookupHopsSig:mean 	18.692307692308
scalar Network.dyn_peer[986] 	lookupTimeSig:mean 	1.675
scalar Network.dyn_peer[986] 	lookupStabilitySig:mean 	0.9643140345579
scalar Network.dyn_peer[986] 	lookupHopsSig:mean 	15.833333333333
scalar Network.dyn_peer[987] 	lookupTimeSig:mean 	2.5
scalar Network.dyn_peer[987] 	lookupStabilitySig:mean 	0.93462852171312
scalar Network.dyn_peer[987] 	lookupHopsSig:mean 	24.166666666667
scalar Network.dyn_peer[988] 	lookupTimeSig:mean 	1.4875
scalar Network.dyn_peer[988] 	lookupStabilitySig:mean 	0.81543331313878
scalar Network.dyn_peer[988] 	lookupHopsSig:mean 	14
scalar Network.dyn_peer[989] 	lookupTimeSig:mean 	1.72
scalar Network.dyn_peer[989] 	lookupStabilitySig:mean 	0.90931880138814
scalar Network.dyn_peer[989] 	lookupHopsSig:mean 	16.4
scalar Network.dyn_peer[990] 	lookupTimeSig:mean 	2.45
scalar Network.dyn_peer[990] 	lookupStabilitySig:mean 	0.86608311836608
scalar Network.dyn_peer[990] 	lookupHopsSig:mean 	23.666666666667
scalar Network.dyn_peer[991] 	lookupTimeSig:mean 	1.7857142857143
scalar Network.dyn_peer[991] 	lookupStabilitySig:mean 	0.9429268221637
scalar Network.dyn_peer[991] 	lookupHopsSig:mean 	17
scalar Network.dyn_peer[992] 	lookupTimeSig:mean 	2.1454545454545
scalar Network.dyn_peer[992] 	lookupStabilitySig:mean 	0.95776254819198
scalar Network.dyn_peer[992] 	lookupHopsSig:mean 	20.545454545455
scalar Network.dyn_peer[993] 	lookupTimeSig:mean 	1.625
scalar Network.dyn_peer[993] 	lookupStabilitySig:mean 	0.94729747704696
scalar Network.dyn_peer[993] 	lookupHopsSig:mean 	15.375
scalar Network.dyn_peer[994] 	lookupTimeSig:mean 	1.7625
scalar Network.dyn_peer[994] 	lookupStabilitySig:mean 	0.95257734553888
scalar Network.dyn_peer[994] 	lookupHopsSig:mean 	16.75
scalar Network.dyn_peer[995] 	lookupTimeSig:mean 	2.2666666666667
scalar Network.dyn_peer[995] 	lookupStabilitySig:mean 	0.68048458049695
scalar Network.dyn_peer[995] 	lookupHopsSig:mean 	22
scalar Network.dyn_peer[996] 	lookupTimeSig:mean 	3.25
scalar Network.dyn_peer[996] 	lookupStabilitySig:mean 	0.51474024355412
scalar Network.dyn_peer[996] 	lookupHopsSig:mean 	32
scalar Network.dyn_peer[997] 	lookupTimeSig:mean 	1.55
scalar Network.dyn_peer[997] 	lookupStabilitySig:mean 	0.42999007552862
scalar Network.dyn_peer[997] 	lookupHopsSig:mean 	15
scalar Network.dyn_peer[998] 	lookupTimeSig:mean 	1.21
scalar Network.dyn_peer[998] 	lookupStabilitySig:mean 	0.90383313130587
scalar Network.dyn_peer[998] 	lookupHopsSig:mean 	11.2
scalar Network.dyn_peer[999] 	lookupTimeSig:mean 	2.5
scalar Network.dyn_peer[999] 	lookupStabilitySig:mean 	0.90576351806521
scalar Network.dyn_peer[999] 	lookupHopsSig:mean 	24.2
scalar Network.churner 	inGoingSizeSig:mean 	499.000999001
