version 2
run Stability2-318-20130526-00:55:12-26640
attr configname Stability2
attr datetime 20130526-00:55:12
attr experiment Stability2
attr inifile omnetpp.ini
attr iterationvars $0=1000
attr iterationvars2 "$0=1000, $repetition=18"
attr measurement $0=1000
attr network Network
attr processid 26640
attr repetition 18
attr replication #18
attr resultdir results
attr runnumber 318
attr seedset 318

scalar Network.dyn_peer[0] 	lookupTimeSig:mean 	2.525
scalar Network.dyn_peer[0] 	lookupStabilitySig:mean 	0.76883589080535
scalar Network.dyn_peer[0] 	lookupHopsSig:mean 	24.5
scalar Network.dyn_peer[1] 	lookupTimeSig:mean 	1.3222222222222
scalar Network.dyn_peer[1] 	lookupStabilitySig:mean 	0.60602709288812
scalar Network.dyn_peer[1] 	lookupHopsSig:mean 	12.333333333333
scalar Network.dyn_peer[2] 	lookupTimeSig:mean 	1.3
scalar Network.dyn_peer[2] 	lookupStabilitySig:mean 	-0.40178571641445
scalar Network.dyn_peer[2] 	lookupHopsSig:mean 	12.5
scalar Network.dyn_peer[3] 	lookupTimeSig:mean 	1.5333333333333
scalar Network.dyn_peer[3] 	lookupStabilitySig:mean 	0.19489247600238
scalar Network.dyn_peer[3] 	lookupHopsSig:mean 	14.666666666667
scalar Network.dyn_peer[4] 	lookupTimeSig:mean 	2.7
scalar Network.dyn_peer[4] 	lookupStabilitySig:mean 	0.2000637575984
scalar Network.dyn_peer[4] 	lookupHopsSig:mean 	26.25
scalar Network.dyn_peer[5] 	lookupTimeSig:mean 	1.4833333333333
scalar Network.dyn_peer[5] 	lookupStabilitySig:mean 	0.49944109190255
scalar Network.dyn_peer[5] 	lookupHopsSig:mean 	14
scalar Network.dyn_peer[6] 	lookupTimeSig:mean 	1.78
scalar Network.dyn_peer[6] 	lookupStabilitySig:mean 	0.64595820531249
scalar Network.dyn_peer[6] 	lookupHopsSig:mean 	17
scalar Network.dyn_peer[7] 	lookupTimeSig:mean 	2.54
scalar Network.dyn_peer[7] 	lookupStabilitySig:mean 	0.49443791210651
scalar Network.dyn_peer[7] 	lookupHopsSig:mean 	24.6
scalar Network.dyn_peer[8] 	lookupTimeSig:mean 	2.1666666666667
scalar Network.dyn_peer[8] 	lookupStabilitySig:mean 	0.72946685894082
scalar Network.dyn_peer[8] 	lookupHopsSig:mean 	20.833333333333
scalar Network.dyn_peer[9] 	lookupTimeSig:mean 	2.075
scalar Network.dyn_peer[9] 	lookupStabilitySig:mean 	0.8150296676904
scalar Network.dyn_peer[9] 	lookupHopsSig:mean 	20
scalar Network.dyn_peer[10] 	lookupTimeSig:mean 	2.275
scalar Network.dyn_peer[10] 	lookupStabilitySig:mean 	0.83201531309169
scalar Network.dyn_peer[10] 	lookupHopsSig:mean 	21.875
scalar Network.dyn_peer[11] 	lookupTimeSig:mean 	1.7916666666667
scalar Network.dyn_peer[11] 	lookupStabilitySig:mean 	0.88763401684506
scalar Network.dyn_peer[11] 	lookupHopsSig:mean 	17
scalar Network.dyn_peer[12] 	lookupTimeSig:mean 	1.8
scalar Network.dyn_peer[12] 	lookupStabilitySig:mean 	0.85499384915456
scalar Network.dyn_peer[12] 	lookupHopsSig:mean 	17.2
scalar Network.dyn_peer[13] 	lookupTimeSig:mean 	1.425
scalar Network.dyn_peer[13] 	lookupStabilitySig:mean 	0.47500000335276
scalar Network.dyn_peer[13] 	lookupHopsSig:mean 	13.5
scalar Network.dyn_peer[14] 	lookupTimeSig:mean 	3.75
scalar Network.dyn_peer[14] 	lookupStabilitySig:mean 	0.78238733671606
scalar Network.dyn_peer[14] 	lookupHopsSig:mean 	37
scalar Network.dyn_peer[15] 	lookupTimeSig:mean 	1.6928571428571
scalar Network.dyn_peer[15] 	lookupStabilitySig:mean 	0.7997969930792
scalar Network.dyn_peer[15] 	lookupHopsSig:mean 	16
scalar Network.dyn_peer[16] 	lookupTimeSig:mean 	1.7666666666667
scalar Network.dyn_peer[16] 	lookupStabilitySig:mean 	0.96841063001193
scalar Network.dyn_peer[16] 	lookupHopsSig:mean 	16.75
scalar Network.dyn_peer[17] 	lookupTimeSig:mean 	3.8
scalar Network.dyn_peer[17] 	lookupStabilitySig:mean 	0.30476282630116
scalar Network.dyn_peer[17] 	lookupHopsSig:mean 	37.25
scalar Network.dyn_peer[18] 	lookupTimeSig:mean 	2.5
scalar Network.dyn_peer[18] 	lookupStabilitySig:mean 	0.75060103088617
scalar Network.dyn_peer[18] 	lookupHopsSig:mean 	24.333333333333
scalar Network.dyn_peer[19] 	lookupTimeSig:mean 	1.6
scalar Network.dyn_peer[19] 	lookupStabilitySig:mean 	0.31693667918444
scalar Network.dyn_peer[19] 	lookupHopsSig:mean 	15.25
scalar Network.dyn_peer[20] 	lookupTimeSig:mean 	1.125
scalar Network.dyn_peer[20] 	lookupStabilitySig:mean 	0.2941810246557
scalar Network.dyn_peer[20] 	lookupHopsSig:mean 	10.5
scalar Network.dyn_peer[21] 	lookupTimeSig:mean 	2.16
scalar Network.dyn_peer[21] 	lookupStabilitySig:mean 	0.36694185584784
scalar Network.dyn_peer[21] 	lookupHopsSig:mean 	20.8
scalar Network.dyn_peer[22] 	lookupTimeSig:mean 	1.3833333333333
scalar Network.dyn_peer[22] 	lookupStabilitySig:mean 	0.46941512357444
scalar Network.dyn_peer[22] 	lookupHopsSig:mean 	13
scalar Network.dyn_peer[23] 	lookupTimeSig:mean 	1.625
scalar Network.dyn_peer[23] 	lookupStabilitySig:mean 	0.37018355168402
scalar Network.dyn_peer[23] 	lookupHopsSig:mean 	15.5
scalar Network.dyn_peer[24] 	lookupTimeSig:mean 	2.8333333333333
scalar Network.dyn_peer[24] 	lookupStabilitySig:mean 	0.037131329377492
scalar Network.dyn_peer[24] 	lookupHopsSig:mean 	27.666666666667
scalar Network.dyn_peer[25] 	lookupTimeSig:mean 	1.9
scalar Network.dyn_peer[25] 	lookupStabilitySig:mean 	0.90930042735168
scalar Network.dyn_peer[25] 	lookupHopsSig:mean 	18.142857142857
scalar Network.dyn_peer[26] 	lookupTimeSig:mean 	0.8625
scalar Network.dyn_peer[26] 	lookupStabilitySig:mean 	0.59331879671663
scalar Network.dyn_peer[26] 	lookupHopsSig:mean 	7.75
scalar Network.dyn_peer[27] 	lookupTimeSig:mean 	2
scalar Network.dyn_peer[27] 	lookupStabilitySig:mean 	0.45639098808169
scalar Network.dyn_peer[27] 	lookupHopsSig:mean 	19.25
scalar Network.dyn_peer[28] 	lookupTimeSig:mean 	2.775
scalar Network.dyn_peer[28] 	lookupStabilitySig:mean 	0.6764493000228
scalar Network.dyn_peer[28] 	lookupHopsSig:mean 	27
scalar Network.dyn_peer[29] 	lookupTimeSig:mean 	1.96
scalar Network.dyn_peer[29] 	lookupStabilitySig:mean 	0.88462122008204
scalar Network.dyn_peer[29] 	lookupHopsSig:mean 	18.8
scalar Network.dyn_peer[30] 	lookupTimeSig:mean 	1.175
scalar Network.dyn_peer[30] 	lookupStabilitySig:mean 	0.28579344041646
scalar Network.dyn_peer[30] 	lookupHopsSig:mean 	11
scalar Network.dyn_peer[31] 	lookupTimeSig:mean 	1.8333333333333
scalar Network.dyn_peer[31] 	lookupStabilitySig:mean 	0.45367647831639
scalar Network.dyn_peer[31] 	lookupHopsSig:mean 	17.666666666667
scalar Network.dyn_peer[32] 	lookupTimeSig:mean 	1.5666666666667
scalar Network.dyn_peer[32] 	lookupStabilitySig:mean 	0.66775384979943
scalar Network.dyn_peer[32] 	lookupHopsSig:mean 	14.777777777778
scalar Network.dyn_peer[33] 	lookupTimeSig:mean 	1.8666666666667
scalar Network.dyn_peer[33] 	lookupStabilitySig:mean 	0.52813184897726
scalar Network.dyn_peer[33] 	lookupHopsSig:mean 	17.833333333333
scalar Network.dyn_peer[34] 	lookupTimeSig:mean 	2.075
scalar Network.dyn_peer[34] 	lookupStabilitySig:mean 	0.38907026220113
scalar Network.dyn_peer[34] 	lookupHopsSig:mean 	20
scalar Network.dyn_peer[35] 	lookupTimeSig:mean 	2.56
scalar Network.dyn_peer[35] 	lookupStabilitySig:mean 	0.93739398755133
scalar Network.dyn_peer[35] 	lookupHopsSig:mean 	24.7
scalar Network.dyn_peer[36] 	lookupTimeSig:mean 	1.4857142857143
scalar Network.dyn_peer[36] 	lookupStabilitySig:mean 	0.59427411954052
scalar Network.dyn_peer[36] 	lookupHopsSig:mean 	14
scalar Network.dyn_peer[37] 	lookupTimeSig:mean 	1.2666666666667
scalar Network.dyn_peer[37] 	lookupStabilitySig:mean 	0.067483653624852
scalar Network.dyn_peer[37] 	lookupHopsSig:mean 	12
scalar Network.dyn_peer[38] 	lookupTimeSig:mean 	2.15
scalar Network.dyn_peer[38] 	lookupStabilitySig:mean 	-0.40547950565815
scalar Network.dyn_peer[38] 	lookupHopsSig:mean 	21
scalar Network.dyn_peer[39] 	lookupTimeSig:mean 	3.375
scalar Network.dyn_peer[39] 	lookupStabilitySig:mean 	0.89384631812572
scalar Network.dyn_peer[39] 	lookupHopsSig:mean 	33
scalar Network.dyn_peer[40] 	lookupTimeSig:mean 	1.35
scalar Network.dyn_peer[40] 	lookupStabilitySig:mean 	0.24082501232624
scalar Network.dyn_peer[40] 	lookupHopsSig:mean 	12.75
scalar Network.dyn_peer[41] 	lookupTimeSig:mean 	1.1833333333333
scalar Network.dyn_peer[41] 	lookupStabilitySig:mean 	0.57661489707728
scalar Network.dyn_peer[41] 	lookupHopsSig:mean 	11
scalar Network.dyn_peer[42] 	lookupTimeSig:mean 	1.9666666666667
scalar Network.dyn_peer[42] 	lookupStabilitySig:mean 	0.078663904840748
scalar Network.dyn_peer[42] 	lookupHopsSig:mean 	19
scalar Network.dyn_peer[43] 	lookupTimeSig:mean 	3.0666666666667
scalar Network.dyn_peer[43] 	lookupStabilitySig:mean 	0.16441065569719
scalar Network.dyn_peer[43] 	lookupHopsSig:mean 	30
scalar Network.dyn_peer[44] 	lookupTimeSig:mean 	1.85
scalar Network.dyn_peer[44] 	lookupStabilitySig:mean 	0.55052833724767
scalar Network.dyn_peer[44] 	lookupHopsSig:mean 	17.666666666667
scalar Network.dyn_peer[45] 	lookupTimeSig:mean 	2.7666666666667
scalar Network.dyn_peer[45] 	lookupStabilitySig:mean 	0.60371854652961
scalar Network.dyn_peer[45] 	lookupHopsSig:mean 	27
scalar Network.dyn_peer[46] 	lookupTimeSig:mean 	1.0583333333333
scalar Network.dyn_peer[46] 	lookupStabilitySig:mean 	0.71134918885461
scalar Network.dyn_peer[46] 	lookupHopsSig:mean 	9.6666666666667
scalar Network.dyn_peer[47] 	lookupTimeSig:mean 	0.88
scalar Network.dyn_peer[47] 	lookupStabilitySig:mean 	0.35111153572798
scalar Network.dyn_peer[47] 	lookupHopsSig:mean 	8
scalar Network.dyn_peer[48] 	lookupTimeSig:mean 	0.68333333333333
scalar Network.dyn_peer[48] 	lookupStabilitySig:mean 	0.52599278713266
scalar Network.dyn_peer[48] 	lookupHopsSig:mean 	6
scalar Network.dyn_peer[49] 	lookupTimeSig:mean 	1.78
scalar Network.dyn_peer[49] 	lookupStabilitySig:mean 	0.7971817266196
scalar Network.dyn_peer[49] 	lookupHopsSig:mean 	17
scalar Network.dyn_peer[50] 	lookupTimeSig:mean 	1.44
scalar Network.dyn_peer[50] 	lookupStabilitySig:mean 	0.72486547071021
scalar Network.dyn_peer[50] 	lookupHopsSig:mean 	13.5
scalar Network.dyn_peer[51] 	lookupTimeSig:mean 	1.4166666666667
scalar Network.dyn_peer[51] 	lookupStabilitySig:mean 	0.63444861583412
scalar Network.dyn_peer[51] 	lookupHopsSig:mean 	13.333333333333
scalar Network.dyn_peer[52] 	lookupTimeSig:mean 	1.8125
scalar Network.dyn_peer[52] 	lookupStabilitySig:mean 	0.9445743157994
scalar Network.dyn_peer[52] 	lookupHopsSig:mean 	17.25
scalar Network.dyn_peer[53] 	lookupTimeSig:mean 	1.85
scalar Network.dyn_peer[53] 	lookupStabilitySig:mean 	0.25851062871516
scalar Network.dyn_peer[53] 	lookupHopsSig:mean 	17.75
scalar Network.dyn_peer[54] 	lookupTimeSig:mean 	1.2333333333333
scalar Network.dyn_peer[54] 	lookupStabilitySig:mean 	0.67999948312839
scalar Network.dyn_peer[54] 	lookupHopsSig:mean 	11.5
scalar Network.dyn_peer[55] 	lookupTimeSig:mean 	1
scalar Network.dyn_peer[55] 	lookupStabilitySig:mean 	0.33282101899385
scalar Network.dyn_peer[55] 	lookupHopsSig:mean 	9.25
scalar Network.dyn_peer[56] 	lookupTimeSig:mean 	2.7
scalar Network.dyn_peer[56] 	lookupStabilitySig:mean 	0.42551827244461
scalar Network.dyn_peer[56] 	lookupHopsSig:mean 	26.25
scalar Network.dyn_peer[57] 	lookupTimeSig:mean 	0.96666666666667
scalar Network.dyn_peer[57] 	lookupStabilitySig:mean 	0.74415436487955
scalar Network.dyn_peer[57] 	lookupHopsSig:mean 	8.75
scalar Network.dyn_peer[58] 	lookupTimeSig:mean 	2.4
scalar Network.dyn_peer[58] 	lookupStabilitySig:mean 	0.82243963020543
scalar Network.dyn_peer[58] 	lookupHopsSig:mean 	23.333333333333
scalar Network.dyn_peer[59] 	lookupTimeSig:mean 	0.8
scalar Network.dyn_peer[59] 	lookupStabilitySig:mean 	0.35606060922146
scalar Network.dyn_peer[59] 	lookupHopsSig:mean 	7.25
scalar Network.dyn_peer[60] 	lookupTimeSig:mean 	1.65
scalar Network.dyn_peer[60] 	lookupStabilitySig:mean 	0.31706627085805
scalar Network.dyn_peer[60] 	lookupHopsSig:mean 	15.75
scalar Network.dyn_peer[61] 	lookupTimeSig:mean 	1.325
scalar Network.dyn_peer[61] 	lookupStabilitySig:mean 	0.4847963838838
scalar Network.dyn_peer[61] 	lookupHopsSig:mean 	12.5
scalar Network.dyn_peer[62] 	lookupTimeSig:mean 	1.7
scalar Network.dyn_peer[62] 	lookupStabilitySig:mean 	0.7737617517123
scalar Network.dyn_peer[62] 	lookupHopsSig:mean 	16.083333333333
scalar Network.dyn_peer[63] 	lookupTimeSig:mean 	2.725
scalar Network.dyn_peer[63] 	lookupStabilitySig:mean 	0.85503480141051
scalar Network.dyn_peer[63] 	lookupHopsSig:mean 	26.5
scalar Network.dyn_peer[64] 	lookupTimeSig:mean 	1.7666666666667
scalar Network.dyn_peer[64] 	lookupStabilitySig:mean 	0.12249547243118
scalar Network.dyn_peer[64] 	lookupHopsSig:mean 	17
scalar Network.dyn_peer[65] 	lookupTimeSig:mean 	1.675
scalar Network.dyn_peer[65] 	lookupStabilitySig:mean 	0.36875718273222
scalar Network.dyn_peer[65] 	lookupHopsSig:mean 	16
scalar Network.dyn_peer[66] 	lookupTimeSig:mean 	2.15
scalar Network.dyn_peer[66] 	lookupStabilitySig:mean 	0.48053352837451
scalar Network.dyn_peer[66] 	lookupHopsSig:mean 	20.75
scalar Network.dyn_peer[67] 	lookupTimeSig:mean 	1.25
scalar Network.dyn_peer[67] 	lookupStabilitySig:mean 	0.49527290649712
scalar Network.dyn_peer[67] 	lookupHopsSig:mean 	11.75
scalar Network.dyn_peer[68] 	lookupTimeSig:mean 	1.55
scalar Network.dyn_peer[68] 	lookupStabilitySig:mean 	0.71162151017537
scalar Network.dyn_peer[68] 	lookupHopsSig:mean 	14.666666666667
scalar Network.dyn_peer[69] 	lookupTimeSig:mean 	0.87777777777778
scalar Network.dyn_peer[69] 	lookupStabilitySig:mean 	0.71910547154645
scalar Network.dyn_peer[69] 	lookupHopsSig:mean 	7.8888888888889
scalar Network.dyn_peer[70] 	lookupTimeSig:mean 	2.2222222222222
scalar Network.dyn_peer[70] 	lookupStabilitySig:mean 	0.94789697043598
scalar Network.dyn_peer[70] 	lookupHopsSig:mean 	21.333333333333
scalar Network.dyn_peer[71] 	lookupTimeSig:mean 	1.85
scalar Network.dyn_peer[71] 	lookupStabilitySig:mean 	0.38191200513393
scalar Network.dyn_peer[71] 	lookupHopsSig:mean 	17.75
scalar Network.dyn_peer[72] 	lookupTimeSig:mean 	3.08
scalar Network.dyn_peer[72] 	lookupStabilitySig:mean 	0.49837108924985
scalar Network.dyn_peer[72] 	lookupHopsSig:mean 	30
scalar Network.dyn_peer[73] 	lookupTimeSig:mean 	1.3222222222222
scalar Network.dyn_peer[73] 	lookupStabilitySig:mean 	0.69067100311319
scalar Network.dyn_peer[73] 	lookupHopsSig:mean 	12.333333333333
scalar Network.dyn_peer[74] 	lookupTimeSig:mean 	2.5666666666667
scalar Network.dyn_peer[74] 	lookupStabilitySig:mean 	0.21647869298855
scalar Network.dyn_peer[74] 	lookupHopsSig:mean 	25
scalar Network.dyn_peer[75] 	lookupTimeSig:mean 	1.5
scalar Network.dyn_peer[75] 	lookupStabilitySig:mean 	0.77196531370282
scalar Network.dyn_peer[75] 	lookupHopsSig:mean 	14.25
scalar Network.dyn_peer[76] 	lookupTimeSig:mean 	1.9333333333333
scalar Network.dyn_peer[76] 	lookupStabilitySig:mean 	0.2966029693683
scalar Network.dyn_peer[76] 	lookupHopsSig:mean 	18.666666666667
scalar Network.dyn_peer[77] 	lookupTimeSig:mean 	2.0428571428571
scalar Network.dyn_peer[77] 	lookupStabilitySig:mean 	0.90131217986345
scalar Network.dyn_peer[77] 	lookupHopsSig:mean 	19.571428571429
scalar Network.dyn_peer[78] 	lookupTimeSig:mean 	1.2
scalar Network.dyn_peer[78] 	lookupStabilitySig:mean 	0.41619266197085
scalar Network.dyn_peer[78] 	lookupHopsSig:mean 	11.2
scalar Network.dyn_peer[79] 	lookupTimeSig:mean 	1.9
scalar Network.dyn_peer[79] 	lookupStabilitySig:mean 	0.93857540823096
scalar Network.dyn_peer[79] 	lookupHopsSig:mean 	18.090909090909
scalar Network.dyn_peer[80] 	lookupTimeSig:mean 	1.7833333333333
scalar Network.dyn_peer[80] 	lookupStabilitySig:mean 	0.48917021602392
scalar Network.dyn_peer[80] 	lookupHopsSig:mean 	17
scalar Network.dyn_peer[81] 	lookupTimeSig:mean 	1.44
scalar Network.dyn_peer[81] 	lookupStabilitySig:mean 	0.56223669350147
scalar Network.dyn_peer[81] 	lookupHopsSig:mean 	13.6
scalar Network.dyn_peer[82] 	lookupTimeSig:mean 	2.5
scalar Network.dyn_peer[82] 	lookupStabilitySig:mean 	0.21233210340142
scalar Network.dyn_peer[82] 	lookupHopsSig:mean 	24.25
scalar Network.dyn_peer[83] 	lookupTimeSig:mean 	2.56
scalar Network.dyn_peer[83] 	lookupStabilitySig:mean 	0.73532230108976
scalar Network.dyn_peer[83] 	lookupHopsSig:mean 	24.8
scalar Network.dyn_peer[84] 	lookupTimeSig:mean 	1.81
scalar Network.dyn_peer[84] 	lookupStabilitySig:mean 	0.8850761141628
scalar Network.dyn_peer[84] 	lookupHopsSig:mean 	17.2
scalar Network.dyn_peer[85] 	lookupTimeSig:mean 	1.8
scalar Network.dyn_peer[85] 	lookupStabilitySig:mean 	0.83916170961623
scalar Network.dyn_peer[85] 	lookupHopsSig:mean 	17.142857142857
scalar Network.dyn_peer[86] 	lookupTimeSig:mean 	2.16
scalar Network.dyn_peer[86] 	lookupStabilitySig:mean 	0.88879972100258
scalar Network.dyn_peer[86] 	lookupHopsSig:mean 	20.8
scalar Network.dyn_peer[87] 	lookupTimeSig:mean 	1.3333333333333
scalar Network.dyn_peer[87] 	lookupStabilitySig:mean 	0.062552211185296
scalar Network.dyn_peer[87] 	lookupHopsSig:mean 	12.666666666667
scalar Network.dyn_peer[88] 	lookupTimeSig:mean 	1.95
scalar Network.dyn_peer[88] 	lookupStabilitySig:mean 	0.12413790822029
scalar Network.dyn_peer[88] 	lookupHopsSig:mean 	19
scalar Network.dyn_peer[89] 	lookupTimeSig:mean 	1.2
scalar Network.dyn_peer[89] 	lookupStabilitySig:mean 	0.78592575237983
scalar Network.dyn_peer[89] 	lookupHopsSig:mean 	11.111111111111
scalar Network.dyn_peer[90] 	lookupTimeSig:mean 	3.15
scalar Network.dyn_peer[90] 	lookupStabilitySig:mean 	0.62554485350847
scalar Network.dyn_peer[90] 	lookupHopsSig:mean 	31
scalar Network.dyn_peer[91] 	lookupTimeSig:mean 	1.68
scalar Network.dyn_peer[91] 	lookupStabilitySig:mean 	0.40081955641508
scalar Network.dyn_peer[91] 	lookupHopsSig:mean 	16
scalar Network.dyn_peer[92] 	lookupTimeSig:mean 	1.9833333333333
scalar Network.dyn_peer[92] 	lookupStabilitySig:mean 	0.81747681096507
scalar Network.dyn_peer[92] 	lookupHopsSig:mean 	18.916666666667
scalar Network.dyn_peer[93] 	lookupTimeSig:mean 	0.94
scalar Network.dyn_peer[93] 	lookupStabilitySig:mean 	0.41958153694868
scalar Network.dyn_peer[93] 	lookupHopsSig:mean 	8.6
scalar Network.dyn_peer[94] 	lookupTimeSig:mean 	1.75
scalar Network.dyn_peer[94] 	lookupStabilitySig:mean 	-0.35416667163372
scalar Network.dyn_peer[94] 	lookupHopsSig:mean 	17
scalar Network.dyn_peer[95] 	lookupTimeSig:mean 	1.42
scalar Network.dyn_peer[95] 	lookupStabilitySig:mean 	0.35445521473885
scalar Network.dyn_peer[95] 	lookupHopsSig:mean 	13.4
scalar Network.dyn_peer[96] 	lookupTimeSig:mean 	2.46
scalar Network.dyn_peer[96] 	lookupStabilitySig:mean 	0.51674265041947
scalar Network.dyn_peer[96] 	lookupHopsSig:mean 	23.8
scalar Network.dyn_peer[97] 	lookupTimeSig:mean 	2.6111111111111
scalar Network.dyn_peer[97] 	lookupStabilitySig:mean 	0.9592859228659
scalar Network.dyn_peer[97] 	lookupHopsSig:mean 	25.222222222222
scalar Network.dyn_peer[98] 	lookupTimeSig:mean 	1.5666666666667
scalar Network.dyn_peer[98] 	lookupStabilitySig:mean 	0.46107732908179
scalar Network.dyn_peer[98] 	lookupHopsSig:mean 	14.833333333333
scalar Network.dyn_peer[99] 	lookupTimeSig:mean 	2.7333333333333
scalar Network.dyn_peer[99] 	lookupStabilitySig:mean 	0.51657179494699
scalar Network.dyn_peer[99] 	lookupHopsSig:mean 	26.666666666667
scalar Network.dyn_peer[100] 	lookupTimeSig:mean 	1.54
scalar Network.dyn_peer[100] 	lookupStabilitySig:mean 	0.64750285223126
scalar Network.dyn_peer[100] 	lookupHopsSig:mean 	14.6
scalar Network.dyn_peer[101] 	lookupTimeSig:mean 	1.7125
scalar Network.dyn_peer[101] 	lookupStabilitySig:mean 	0.58039619564079
scalar Network.dyn_peer[101] 	lookupHopsSig:mean 	16.25
scalar Network.dyn_peer[102] 	lookupTimeSig:mean 	2.4333333333333
scalar Network.dyn_peer[102] 	lookupStabilitySig:mean 	0.13607574999332
scalar Network.dyn_peer[102] 	lookupHopsSig:mean 	23.666666666667
scalar Network.dyn_peer[103] 	lookupTimeSig:mean 	1.4333333333333
scalar Network.dyn_peer[103] 	lookupStabilitySig:mean 	0.13872179389
scalar Network.dyn_peer[103] 	lookupHopsSig:mean 	13.666666666667
scalar Network.dyn_peer[104] 	lookupTimeSig:mean 	2.45
scalar Network.dyn_peer[104] 	lookupStabilitySig:mean 	-0.1523809581995
scalar Network.dyn_peer[104] 	lookupHopsSig:mean 	24
scalar Network.dyn_peer[105] 	lookupTimeSig:mean 	1.2
scalar Network.dyn_peer[105] 	lookupStabilitySig:mean 	0.37646184302866
scalar Network.dyn_peer[105] 	lookupHopsSig:mean 	11.25
scalar Network.dyn_peer[106] 	lookupTimeSig:mean 	2.575
scalar Network.dyn_peer[106] 	lookupStabilitySig:mean 	0.45626524928957
scalar Network.dyn_peer[106] 	lookupHopsSig:mean 	25
scalar Network.dyn_peer[107] 	lookupTimeSig:mean 	5.25
scalar Network.dyn_peer[107] 	lookupStabilitySig:mean 	0.29471489042044
scalar Network.dyn_peer[107] 	lookupHopsSig:mean 	52
scalar Network.dyn_peer[108] 	lookupTimeSig:mean 	2.1
scalar Network.dyn_peer[108] 	lookupStabilitySig:mean 	0.82346748933196
scalar Network.dyn_peer[108] 	lookupHopsSig:mean 	20.142857142857
scalar Network.dyn_peer[109] 	lookupTimeSig:mean 	1.9666666666667
scalar Network.dyn_peer[109] 	lookupStabilitySig:mean 	0.37979692717393
scalar Network.dyn_peer[109] 	lookupHopsSig:mean 	19
scalar Network.dyn_peer[110] 	lookupTimeSig:mean 	1.575
scalar Network.dyn_peer[110] 	lookupStabilitySig:mean 	0.35668725240976
scalar Network.dyn_peer[110] 	lookupHopsSig:mean 	15
scalar Network.dyn_peer[111] 	lookupTimeSig:mean 	1.35
scalar Network.dyn_peer[111] 	lookupStabilitySig:mean 	0.72020413149148
scalar Network.dyn_peer[111] 	lookupHopsSig:mean 	12.6
scalar Network.dyn_peer[112] 	lookupTimeSig:mean 	3.7666666666667
scalar Network.dyn_peer[112] 	lookupStabilitySig:mean 	0.87005940886835
scalar Network.dyn_peer[112] 	lookupHopsSig:mean 	37
scalar Network.dyn_peer[113] 	lookupTimeSig:mean 	1.7
scalar Network.dyn_peer[113] 	lookupStabilitySig:mean 	0.82381852123548
scalar Network.dyn_peer[113] 	lookupHopsSig:mean 	16.090909090909
scalar Network.dyn_peer[114] 	lookupTimeSig:mean 	1.4714285714286
scalar Network.dyn_peer[114] 	lookupStabilitySig:mean 	0.90923542918504
scalar Network.dyn_peer[114] 	lookupHopsSig:mean 	13.785714285714
scalar Network.dyn_peer[115] 	lookupTimeSig:mean 	2.575
scalar Network.dyn_peer[115] 	lookupStabilitySig:mean 	0.87566811684519
scalar Network.dyn_peer[115] 	lookupHopsSig:mean 	25
scalar Network.dyn_peer[116] 	lookupTimeSig:mean 	1.06
scalar Network.dyn_peer[116] 	lookupStabilitySig:mean 	0.53022557422519
scalar Network.dyn_peer[116] 	lookupHopsSig:mean 	9.8
scalar Network.dyn_peer[117] 	lookupTimeSig:mean 	1.6
scalar Network.dyn_peer[117] 	lookupStabilitySig:mean 	0.51071086153388
scalar Network.dyn_peer[117] 	lookupHopsSig:mean 	15.25
scalar Network.dyn_peer[118] 	lookupTimeSig:mean 	1.275
scalar Network.dyn_peer[118] 	lookupStabilitySig:mean 	0.28303219750524
scalar Network.dyn_peer[118] 	lookupHopsSig:mean 	12
scalar Network.dyn_peer[119] 	lookupTimeSig:mean 	1.48
scalar Network.dyn_peer[119] 	lookupStabilitySig:mean 	0.83264791183174
scalar Network.dyn_peer[119] 	lookupHopsSig:mean 	14
scalar Network.dyn_peer[120] 	lookupTimeSig:mean 	1.9666666666667
scalar Network.dyn_peer[120] 	lookupStabilitySig:mean 	0.603506276384
scalar Network.dyn_peer[120] 	lookupHopsSig:mean 	19
scalar Network.dyn_peer[121] 	lookupTimeSig:mean 	2.45
scalar Network.dyn_peer[121] 	lookupStabilitySig:mean 	0.42615486308932
scalar Network.dyn_peer[121] 	lookupHopsSig:mean 	23.75
scalar Network.dyn_peer[122] 	lookupTimeSig:mean 	2.76
scalar Network.dyn_peer[122] 	lookupStabilitySig:mean 	0.87041009608656
scalar Network.dyn_peer[122] 	lookupHopsSig:mean 	26.8
scalar Network.dyn_peer[123] 	lookupTimeSig:mean 	1.7
scalar Network.dyn_peer[123] 	lookupStabilitySig:mean 	0.92832917440683
scalar Network.dyn_peer[123] 	lookupHopsSig:mean 	16.1
scalar Network.dyn_peer[124] 	lookupTimeSig:mean 	2.26
scalar Network.dyn_peer[124] 	lookupStabilitySig:mean 	0.44764570072293
scalar Network.dyn_peer[124] 	lookupHopsSig:mean 	21.8
scalar Network.dyn_peer[125] 	lookupTimeSig:mean 	2.1333333333333
scalar Network.dyn_peer[125] 	lookupStabilitySig:mean 	0.02051683763663
scalar Network.dyn_peer[125] 	lookupHopsSig:mean 	20.666666666667
scalar Network.dyn_peer[126] 	lookupTimeSig:mean 	2.3714285714286
scalar Network.dyn_peer[126] 	lookupStabilitySig:mean 	0.7361889838108
scalar Network.dyn_peer[126] 	lookupHopsSig:mean 	22.857142857143
scalar Network.dyn_peer[127] 	lookupTimeSig:mean 	1.2
scalar Network.dyn_peer[127] 	lookupStabilitySig:mean 	0.60530728660524
scalar Network.dyn_peer[127] 	lookupHopsSig:mean 	11.166666666667
scalar Network.dyn_peer[128] 	lookupTimeSig:mean 	2.48
scalar Network.dyn_peer[128] 	lookupStabilitySig:mean 	0.62690166756511
scalar Network.dyn_peer[128] 	lookupHopsSig:mean 	24
scalar Network.dyn_peer[129] 	lookupTimeSig:mean 	2
scalar Network.dyn_peer[129] 	lookupStabilitySig:mean 	0.85771016807606
scalar Network.dyn_peer[129] 	lookupHopsSig:mean 	19.166666666667
scalar Network.dyn_peer[130] 	lookupTimeSig:mean 	2.7857142857143
scalar Network.dyn_peer[130] 	lookupStabilitySig:mean 	0.95150875167123
scalar Network.dyn_peer[130] 	lookupHopsSig:mean 	27
scalar Network.dyn_peer[131] 	lookupTimeSig:mean 	1.65
scalar Network.dyn_peer[131] 	lookupStabilitySig:mean 	0.6175802317448
scalar Network.dyn_peer[131] 	lookupHopsSig:mean 	15.75
scalar Network.dyn_peer[132] 	lookupTimeSig:mean 	1.4142857142857
scalar Network.dyn_peer[132] 	lookupStabilitySig:mean 	0.61406383520391
scalar Network.dyn_peer[132] 	lookupHopsSig:mean 	13.285714285714
scalar Network.dyn_peer[133] 	lookupTimeSig:mean 	1.8888888888889
scalar Network.dyn_peer[133] 	lookupStabilitySig:mean 	0.83446065201941
scalar Network.dyn_peer[133] 	lookupHopsSig:mean 	18
scalar Network.dyn_peer[134] 	lookupTimeSig:mean 	1.3285714285714
scalar Network.dyn_peer[134] 	lookupStabilitySig:mean 	0.71795230811196
scalar Network.dyn_peer[134] 	lookupHopsSig:mean 	12.428571428571
scalar Network.dyn_peer[135] 	lookupTimeSig:mean 	1.78
scalar Network.dyn_peer[135] 	lookupStabilitySig:mean 	0.63687454089522
scalar Network.dyn_peer[135] 	lookupHopsSig:mean 	17
scalar Network.dyn_peer[136] 	lookupTimeSig:mean 	1.6166666666667
scalar Network.dyn_peer[136] 	lookupStabilitySig:mean 	0.4921489963308
scalar Network.dyn_peer[136] 	lookupHopsSig:mean 	15.333333333333
scalar Network.dyn_peer[137] 	lookupTimeSig:mean 	1.3
scalar Network.dyn_peer[137] 	lookupStabilitySig:mean 	0.68401012466186
scalar Network.dyn_peer[137] 	lookupHopsSig:mean 	12.111111111111
scalar Network.dyn_peer[138] 	lookupTimeSig:mean 	3.025
scalar Network.dyn_peer[138] 	lookupStabilitySig:mean 	0.8994473493658
scalar Network.dyn_peer[138] 	lookupHopsSig:mean 	29.5
scalar Network.dyn_peer[139] 	lookupTimeSig:mean 	3.3
scalar Network.dyn_peer[139] 	lookupStabilitySig:mean 	0.64064923922221
scalar Network.dyn_peer[139] 	lookupHopsSig:mean 	32.333333333333
scalar Network.dyn_peer[140] 	lookupTimeSig:mean 	1
scalar Network.dyn_peer[140] 	lookupStabilitySig:mean 	0.27732792248329
scalar Network.dyn_peer[140] 	lookupHopsSig:mean 	9.3333333333333
scalar Network.dyn_peer[141] 	lookupTimeSig:mean 	1.7
scalar Network.dyn_peer[141] 	lookupStabilitySig:mean 	0.69757343207796
scalar Network.dyn_peer[141] 	lookupHopsSig:mean 	16.333333333333
scalar Network.dyn_peer[142] 	lookupTimeSig:mean 	1.6
scalar Network.dyn_peer[142] 	lookupStabilitySig:mean 	0.62568137869239
scalar Network.dyn_peer[142] 	lookupHopsSig:mean 	15.2
scalar Network.dyn_peer[143] 	lookupTimeSig:mean 	1.9785714285714
scalar Network.dyn_peer[143] 	lookupStabilitySig:mean 	0.91816317043932
scalar Network.dyn_peer[143] 	lookupHopsSig:mean 	18.857142857143
scalar Network.dyn_peer[144] 	lookupTimeSig:mean 	2.175
scalar Network.dyn_peer[144] 	lookupStabilitySig:mean 	0.64601260214113
scalar Network.dyn_peer[144] 	lookupHopsSig:mean 	20.875
scalar Network.dyn_peer[145] 	lookupTimeSig:mean 	1.7714285714286
scalar Network.dyn_peer[145] 	lookupStabilitySig:mean 	0.91049523079502
scalar Network.dyn_peer[145] 	lookupHopsSig:mean 	16.857142857143
scalar Network.dyn_peer[146] 	lookupTimeSig:mean 	6.65
scalar Network.dyn_peer[146] 	lookupStabilitySig:mean 	0.77300126105547
scalar Network.dyn_peer[146] 	lookupHopsSig:mean 	66
scalar Network.dyn_peer[147] 	lookupTimeSig:mean 	1.525
scalar Network.dyn_peer[147] 	lookupStabilitySig:mean 	0.89678381732665
scalar Network.dyn_peer[147] 	lookupHopsSig:mean 	14.375
scalar Network.dyn_peer[148] 	lookupTimeSig:mean 	3.0666666666667
scalar Network.dyn_peer[148] 	lookupStabilitySig:mean 	0.69000371297201
scalar Network.dyn_peer[148] 	lookupHopsSig:mean 	30
scalar Network.dyn_peer[149] 	lookupTimeSig:mean 	2.5666666666667
scalar Network.dyn_peer[149] 	lookupStabilitySig:mean 	0.332830461363
scalar Network.dyn_peer[149] 	lookupHopsSig:mean 	25
scalar Network.dyn_peer[150] 	lookupTimeSig:mean 	1.66
scalar Network.dyn_peer[150] 	lookupStabilitySig:mean 	0.4701638430357
scalar Network.dyn_peer[150] 	lookupHopsSig:mean 	15.8
scalar Network.dyn_peer[151] 	lookupTimeSig:mean 	2.1333333333333
scalar Network.dyn_peer[151] 	lookupStabilitySig:mean 	0.85990456336488
scalar Network.dyn_peer[151] 	lookupHopsSig:mean 	20.5
scalar Network.dyn_peer[152] 	lookupTimeSig:mean 	2.84
scalar Network.dyn_peer[152] 	lookupStabilitySig:mean 	0.86977974064648
scalar Network.dyn_peer[152] 	lookupHopsSig:mean 	27.6
scalar Network.dyn_peer[153] 	lookupTimeSig:mean 	1.1333333333333
scalar Network.dyn_peer[153] 	lookupStabilitySig:mean 	0.76572055669708
scalar Network.dyn_peer[153] 	lookupHopsSig:mean 	10.444444444444
scalar Network.dyn_peer[154] 	lookupTimeSig:mean 	1.8636363636364
scalar Network.dyn_peer[154] 	lookupStabilitySig:mean 	0.93513799204745
scalar Network.dyn_peer[154] 	lookupHopsSig:mean 	17.727272727273
scalar Network.dyn_peer[155] 	lookupTimeSig:mean 	1.9
scalar Network.dyn_peer[155] 	lookupStabilitySig:mean 	0.52964668472608
scalar Network.dyn_peer[155] 	lookupHopsSig:mean 	18.333333333333
scalar Network.dyn_peer[156] 	lookupTimeSig:mean 	3.1666666666667
scalar Network.dyn_peer[156] 	lookupStabilitySig:mean 	0.4240758617719
scalar Network.dyn_peer[156] 	lookupHopsSig:mean 	31
scalar Network.dyn_peer[157] 	lookupTimeSig:mean 	1.6666666666667
scalar Network.dyn_peer[157] 	lookupStabilitySig:mean 	0.71016276371665
scalar Network.dyn_peer[157] 	lookupHopsSig:mean 	15.833333333333
scalar Network.dyn_peer[158] 	lookupTimeSig:mean 	1.925
scalar Network.dyn_peer[158] 	lookupStabilitySig:mean 	0.50801863893867
scalar Network.dyn_peer[158] 	lookupHopsSig:mean 	18.5
scalar Network.dyn_peer[159] 	lookupTimeSig:mean 	3.8
scalar Network.dyn_peer[159] 	lookupStabilitySig:mean 	0.23439411073923
scalar Network.dyn_peer[159] 	lookupHopsSig:mean 	37.5
scalar Network.dyn_peer[160] 	lookupTimeSig:mean 	1.4692307692308
scalar Network.dyn_peer[160] 	lookupStabilitySig:mean 	0.94320838631561
scalar Network.dyn_peer[160] 	lookupHopsSig:mean 	13.769230769231
scalar Network.dyn_peer[161] 	lookupTimeSig:mean 	2.5333333333333
scalar Network.dyn_peer[161] 	lookupStabilitySig:mean 	0.89148378930986
scalar Network.dyn_peer[161] 	lookupHopsSig:mean 	24.5
scalar Network.dyn_peer[162] 	lookupTimeSig:mean 	2.0571428571429
scalar Network.dyn_peer[162] 	lookupStabilitySig:mean 	0.68648726519729
scalar Network.dyn_peer[162] 	lookupHopsSig:mean 	19.714285714286
scalar Network.dyn_peer[163] 	lookupTimeSig:mean 	1.7
scalar Network.dyn_peer[163] 	lookupStabilitySig:mean 	0.7940005319193
scalar Network.dyn_peer[163] 	lookupHopsSig:mean 	16.2
scalar Network.dyn_peer[164] 	lookupTimeSig:mean 	2.2
scalar Network.dyn_peer[164] 	lookupStabilitySig:mean 	0.57222221791744
scalar Network.dyn_peer[164] 	lookupHopsSig:mean 	21.5
scalar Network.dyn_peer[165] 	lookupTimeSig:mean 	2
scalar Network.dyn_peer[165] 	lookupStabilitySig:mean 	0.10939303040504
scalar Network.dyn_peer[165] 	lookupHopsSig:mean 	19.333333333333
scalar Network.dyn_peer[166] 	lookupTimeSig:mean 	2.2285714285714
scalar Network.dyn_peer[166] 	lookupStabilitySig:mean 	0.89694469581757
scalar Network.dyn_peer[166] 	lookupHopsSig:mean 	21.428571428571
scalar Network.dyn_peer[167] 	lookupTimeSig:mean 	2.2333333333333
scalar Network.dyn_peer[167] 	lookupStabilitySig:mean 	0.23084369798501
scalar Network.dyn_peer[167] 	lookupHopsSig:mean 	21.666666666667
scalar Network.dyn_peer[168] 	lookupTimeSig:mean 	1.7625
scalar Network.dyn_peer[168] 	lookupStabilitySig:mean 	0.94553483859636
scalar Network.dyn_peer[168] 	lookupHopsSig:mean 	16.75
scalar Network.dyn_peer[169] 	lookupTimeSig:mean 	1.7333333333333
scalar Network.dyn_peer[169] 	lookupStabilitySig:mean 	-0.074242442846298
scalar Network.dyn_peer[169] 	lookupHopsSig:mean 	16.666666666667
scalar Network.dyn_peer[170] 	lookupTimeSig:mean 	2.3571428571429
scalar Network.dyn_peer[170] 	lookupStabilitySig:mean 	0.93428281348731
scalar Network.dyn_peer[170] 	lookupHopsSig:mean 	22.714285714286
scalar Network.dyn_peer[171] 	lookupTimeSig:mean 	2.15
scalar Network.dyn_peer[171] 	lookupStabilitySig:mean 	0.82144239172339
scalar Network.dyn_peer[171] 	lookupHopsSig:mean 	20.666666666667
scalar Network.dyn_peer[172] 	lookupTimeSig:mean 	1.6875
scalar Network.dyn_peer[172] 	lookupStabilitySig:mean 	0.63132391765248
scalar Network.dyn_peer[172] 	lookupHopsSig:mean 	16
scalar Network.dyn_peer[173] 	lookupTimeSig:mean 	1.15
scalar Network.dyn_peer[173] 	lookupStabilitySig:mean 	-0.30769231915474
scalar Network.dyn_peer[173] 	lookupHopsSig:mean 	11
scalar Network.dyn_peer[174] 	lookupTimeSig:mean 	1.6714285714286
scalar Network.dyn_peer[174] 	lookupStabilitySig:mean 	0.6913850753169
scalar Network.dyn_peer[174] 	lookupHopsSig:mean 	15.857142857143
scalar Network.dyn_peer[175] 	lookupTimeSig:mean 	1.6333333333333
scalar Network.dyn_peer[175] 	lookupStabilitySig:mean 	0.21913580099742
scalar Network.dyn_peer[175] 	lookupHopsSig:mean 	15.666666666667
scalar Network.dyn_peer[176] 	lookupTimeSig:mean 	0.8
scalar Network.dyn_peer[176] 	lookupStabilitySig:mean 	0.28876879252493
scalar Network.dyn_peer[176] 	lookupHopsSig:mean 	7.25
scalar Network.dyn_peer[177] 	lookupTimeSig:mean 	1.9875
scalar Network.dyn_peer[177] 	lookupStabilitySig:mean 	0.74948654964101
scalar Network.dyn_peer[177] 	lookupHopsSig:mean 	19
scalar Network.dyn_peer[178] 	lookupTimeSig:mean 	2.7
scalar Network.dyn_peer[178] 	lookupStabilitySig:mean 	0.86970787234604
scalar Network.dyn_peer[178] 	lookupHopsSig:mean 	26.2
scalar Network.dyn_peer[179] 	lookupTimeSig:mean 	2.2
scalar Network.dyn_peer[179] 	lookupStabilitySig:mean 	0.59302325795094
scalar Network.dyn_peer[179] 	lookupHopsSig:mean 	21.333333333333
scalar Network.dyn_peer[180] 	lookupTimeSig:mean 	1.5181818181818
scalar Network.dyn_peer[180] 	lookupStabilitySig:mean 	0.95762044432658
scalar Network.dyn_peer[180] 	lookupHopsSig:mean 	14.272727272727
scalar Network.dyn_peer[181] 	lookupTimeSig:mean 	1.6411764705882
scalar Network.dyn_peer[181] 	lookupStabilitySig:mean 	0.95636585198671
scalar Network.dyn_peer[181] 	lookupHopsSig:mean 	15.470588235294
scalar Network.dyn_peer[182] 	lookupTimeSig:mean 	1.0333333333333
scalar Network.dyn_peer[182] 	lookupStabilitySig:mean 	0.57605175557546
scalar Network.dyn_peer[182] 	lookupHopsSig:mean 	9.5
scalar Network.dyn_peer[183] 	lookupTimeSig:mean 	1.5
scalar Network.dyn_peer[183] 	lookupStabilitySig:mean 	0.6383942104876
scalar Network.dyn_peer[183] 	lookupHopsSig:mean 	14.25
scalar Network.dyn_peer[184] 	lookupTimeSig:mean 	1.0571428571429
scalar Network.dyn_peer[184] 	lookupStabilitySig:mean 	0.59827342230294
scalar Network.dyn_peer[184] 	lookupHopsSig:mean 	9.7142857142857
scalar Network.dyn_peer[185] 	lookupTimeSig:mean 	1.2
scalar Network.dyn_peer[185] 	lookupStabilitySig:mean 	0.3499673448503
scalar Network.dyn_peer[185] 	lookupHopsSig:mean 	11.2
scalar Network.dyn_peer[186] 	lookupTimeSig:mean 	1.2615384615385
scalar Network.dyn_peer[186] 	lookupStabilitySig:mean 	0.75531053170562
scalar Network.dyn_peer[186] 	lookupHopsSig:mean 	11.692307692308
scalar Network.dyn_peer[187] 	lookupTimeSig:mean 	1.62
scalar Network.dyn_peer[187] 	lookupStabilitySig:mean 	0.36035209521651
scalar Network.dyn_peer[187] 	lookupHopsSig:mean 	15.4
scalar Network.dyn_peer[188] 	lookupTimeSig:mean 	1.25
scalar Network.dyn_peer[188] 	lookupStabilitySig:mean 	0.50512075982988
scalar Network.dyn_peer[188] 	lookupHopsSig:mean 	11.75
scalar Network.dyn_peer[189] 	lookupTimeSig:mean 	2.1571428571429
scalar Network.dyn_peer[189] 	lookupStabilitySig:mean 	0.8845632496689
scalar Network.dyn_peer[189] 	lookupHopsSig:mean 	20.714285714286
scalar Network.dyn_peer[190] 	lookupTimeSig:mean 	1.3
scalar Network.dyn_peer[190] 	lookupStabilitySig:mean 	0.32496493309736
scalar Network.dyn_peer[190] 	lookupHopsSig:mean 	12.25
scalar Network.dyn_peer[191] 	lookupTimeSig:mean 	1.5
scalar Network.dyn_peer[191] 	lookupStabilitySig:mean 	0.11290323734283
scalar Network.dyn_peer[191] 	lookupHopsSig:mean 	14.5
scalar Network.dyn_peer[192] 	lookupTimeSig:mean 	1.0666666666667
scalar Network.dyn_peer[192] 	lookupStabilitySig:mean 	0.48666863453885
scalar Network.dyn_peer[192] 	lookupHopsSig:mean 	9.8333333333333
scalar Network.dyn_peer[193] 	lookupTimeSig:mean 	1.975
scalar Network.dyn_peer[193] 	lookupStabilitySig:mean 	0.9200463432353
scalar Network.dyn_peer[193] 	lookupHopsSig:mean 	18.833333333333
scalar Network.dyn_peer[194] 	lookupTimeSig:mean 	2
scalar Network.dyn_peer[194] 	lookupStabilitySig:mean 	0.30753925442696
scalar Network.dyn_peer[194] 	lookupHopsSig:mean 	19.25
scalar Network.dyn_peer[195] 	lookupTimeSig:mean 	2.9
scalar Network.dyn_peer[195] 	lookupStabilitySig:mean 	0.79339498033126
scalar Network.dyn_peer[195] 	lookupHopsSig:mean 	28.333333333333
scalar Network.dyn_peer[196] 	lookupTimeSig:mean 	2.68
scalar Network.dyn_peer[196] 	lookupStabilitySig:mean 	0.90642853267491
scalar Network.dyn_peer[196] 	lookupHopsSig:mean 	26
scalar Network.dyn_peer[197] 	lookupTimeSig:mean 	1.45
scalar Network.dyn_peer[197] 	lookupStabilitySig:mean 	0.53858614029984
scalar Network.dyn_peer[197] 	lookupHopsSig:mean 	13.666666666667
scalar Network.dyn_peer[198] 	lookupTimeSig:mean 	2.0428571428571
scalar Network.dyn_peer[198] 	lookupStabilitySig:mean 	0.87981228636844
scalar Network.dyn_peer[198] 	lookupHopsSig:mean 	19.571428571429
scalar Network.dyn_peer[199] 	lookupTimeSig:mean 	1.9857142857143
scalar Network.dyn_peer[199] 	lookupStabilitySig:mean 	0.93592956236431
scalar Network.dyn_peer[199] 	lookupHopsSig:mean 	19
scalar Network.dyn_peer[200] 	lookupTimeSig:mean 	1.08
scalar Network.dyn_peer[200] 	lookupStabilitySig:mean 	0.45913087278605
scalar Network.dyn_peer[200] 	lookupHopsSig:mean 	10
scalar Network.dyn_peer[201] 	lookupTimeSig:mean 	0.975
scalar Network.dyn_peer[201] 	lookupStabilitySig:mean 	0.39650348387659
scalar Network.dyn_peer[201] 	lookupHopsSig:mean 	9
scalar Network.dyn_peer[202] 	lookupTimeSig:mean 	1.825
scalar Network.dyn_peer[202] 	lookupStabilitySig:mean 	0.36040277034044
scalar Network.dyn_peer[202] 	lookupHopsSig:mean 	17.5
scalar Network.dyn_peer[203] 	lookupTimeSig:mean 	2.2
scalar Network.dyn_peer[203] 	lookupStabilitySig:mean 	0.20219360664487
scalar Network.dyn_peer[203] 	lookupHopsSig:mean 	21.333333333333
scalar Network.dyn_peer[204] 	lookupTimeSig:mean 	1.5333333333333
scalar Network.dyn_peer[204] 	lookupStabilitySig:mean 	0.88386069414102
scalar Network.dyn_peer[204] 	lookupHopsSig:mean 	14.444444444444
scalar Network.dyn_peer[205] 	lookupTimeSig:mean 	1.88
scalar Network.dyn_peer[205] 	lookupStabilitySig:mean 	0.73952374197543
scalar Network.dyn_peer[205] 	lookupHopsSig:mean 	17.9
scalar Network.dyn_peer[206] 	lookupTimeSig:mean 	2.05
scalar Network.dyn_peer[206] 	lookupStabilitySig:mean 	0.54632674902678
scalar Network.dyn_peer[206] 	lookupHopsSig:mean 	19.666666666667
scalar Network.dyn_peer[207] 	lookupTimeSig:mean 	1.1785714285714
scalar Network.dyn_peer[207] 	lookupStabilitySig:mean 	0.77324791891234
scalar Network.dyn_peer[207] 	lookupHopsSig:mean 	10.857142857143
scalar Network.dyn_peer[208] 	lookupTimeSig:mean 	2.3
scalar Network.dyn_peer[208] 	lookupStabilitySig:mean 	0.82498493449142
scalar Network.dyn_peer[208] 	lookupHopsSig:mean 	22.166666666667
scalar Network.dyn_peer[209] 	lookupTimeSig:mean 	1.2666666666667
scalar Network.dyn_peer[209] 	lookupStabilitySig:mean 	0.53467589430511
scalar Network.dyn_peer[209] 	lookupHopsSig:mean 	11.833333333333
scalar Network.dyn_peer[210] 	lookupTimeSig:mean 	1.4583333333333
scalar Network.dyn_peer[210] 	lookupStabilitySig:mean 	0.80578773996482
scalar Network.dyn_peer[210] 	lookupHopsSig:mean 	13.666666666667
scalar Network.dyn_peer[211] 	lookupTimeSig:mean 	2.5
scalar Network.dyn_peer[211] 	lookupStabilitySig:mean 	0.69631464518607
scalar Network.dyn_peer[211] 	lookupHopsSig:mean 	24.2
scalar Network.dyn_peer[212] 	lookupTimeSig:mean 	2.55
scalar Network.dyn_peer[212] 	lookupStabilitySig:mean 	0.75813686349429
scalar Network.dyn_peer[212] 	lookupHopsSig:mean 	24.6
scalar Network.dyn_peer[213] 	lookupTimeSig:mean 	2.3
scalar Network.dyn_peer[213] 	lookupStabilitySig:mean 	0.53733388427645
scalar Network.dyn_peer[213] 	lookupHopsSig:mean 	22.25
scalar Network.dyn_peer[214] 	lookupTimeSig:mean 	1.7285714285714
scalar Network.dyn_peer[214] 	lookupStabilitySig:mean 	0.70431526484234
scalar Network.dyn_peer[214] 	lookupHopsSig:mean 	16.428571428571
scalar Network.dyn_peer[215] 	lookupTimeSig:mean 	2.3333333333333
scalar Network.dyn_peer[215] 	lookupStabilitySig:mean 	0.86556589199851
scalar Network.dyn_peer[215] 	lookupHopsSig:mean 	22.5
scalar Network.dyn_peer[216] 	lookupTimeSig:mean 	2.1
scalar Network.dyn_peer[216] 	lookupStabilitySig:mean 	0.63432052657008
scalar Network.dyn_peer[216] 	lookupHopsSig:mean 	20.2
scalar Network.dyn_peer[217] 	lookupTimeSig:mean 	2.0375
scalar Network.dyn_peer[217] 	lookupStabilitySig:mean 	0.85810798028251
scalar Network.dyn_peer[217] 	lookupHopsSig:mean 	19.5
scalar Network.dyn_peer[218] 	lookupTimeSig:mean 	2.5
scalar Network.dyn_peer[218] 	lookupStabilitySig:mean 	0.83352309993158
scalar Network.dyn_peer[218] 	lookupHopsSig:mean 	24.166666666667
scalar Network.dyn_peer[219] 	lookupTimeSig:mean 	1.4
scalar Network.dyn_peer[219] 	lookupStabilitySig:mean 	0.056721031665802
scalar Network.dyn_peer[219] 	lookupHopsSig:mean 	13.333333333333
scalar Network.dyn_peer[220] 	lookupTimeSig:mean 	2.0555555555556
scalar Network.dyn_peer[220] 	lookupStabilitySig:mean 	0.73932936854867
scalar Network.dyn_peer[220] 	lookupHopsSig:mean 	19.666666666667
scalar Network.dyn_peer[221] 	lookupTimeSig:mean 	1.1384615384615
scalar Network.dyn_peer[221] 	lookupStabilitySig:mean 	0.92836781781024
scalar Network.dyn_peer[221] 	lookupHopsSig:mean 	10.461538461538
scalar Network.dyn_peer[222] 	lookupTimeSig:mean 	2.0714285714286
scalar Network.dyn_peer[222] 	lookupStabilitySig:mean 	0.90969389158168
scalar Network.dyn_peer[222] 	lookupHopsSig:mean 	19.857142857143
scalar Network.dyn_peer[223] 	lookupTimeSig:mean 	2.8666666666667
scalar Network.dyn_peer[223] 	lookupStabilitySig:mean 	0.73249158387383
scalar Network.dyn_peer[223] 	lookupHopsSig:mean 	28
scalar Network.dyn_peer[224] 	lookupTimeSig:mean 	2.2888888888889
scalar Network.dyn_peer[224] 	lookupStabilitySig:mean 	0.94022818008024
scalar Network.dyn_peer[224] 	lookupHopsSig:mean 	22
scalar Network.dyn_peer[225] 	lookupTimeSig:mean 	1.775
scalar Network.dyn_peer[225] 	lookupStabilitySig:mean 	0.88094248913694
scalar Network.dyn_peer[225] 	lookupHopsSig:mean 	16.875
scalar Network.dyn_peer[226] 	lookupTimeSig:mean 	0.75714285714286
scalar Network.dyn_peer[226] 	lookupStabilitySig:mean 	0.60139600699767
scalar Network.dyn_peer[226] 	lookupHopsSig:mean 	6.7142857142857
scalar Network.dyn_peer[227] 	lookupTimeSig:mean 	2.5857142857143
scalar Network.dyn_peer[227] 	lookupStabilitySig:mean 	0.93611393389957
scalar Network.dyn_peer[227] 	lookupHopsSig:mean 	25
scalar Network.dyn_peer[228] 	lookupTimeSig:mean 	1.2142857142857
scalar Network.dyn_peer[228] 	lookupStabilitySig:mean 	0.56771996776972
scalar Network.dyn_peer[228] 	lookupHopsSig:mean 	11.285714285714
scalar Network.dyn_peer[229] 	lookupTimeSig:mean 	1.8142857142857
scalar Network.dyn_peer[229] 	lookupStabilitySig:mean 	0.85739446497921
scalar Network.dyn_peer[229] 	lookupHopsSig:mean 	17.285714285714
scalar Network.dyn_peer[230] 	lookupTimeSig:mean 	2.4333333333333
scalar Network.dyn_peer[230] 	lookupStabilitySig:mean 	0.27048857013385
scalar Network.dyn_peer[230] 	lookupHopsSig:mean 	23.666666666667
scalar Network.dyn_peer[231] 	lookupTimeSig:mean 	2.575
scalar Network.dyn_peer[231] 	lookupStabilitySig:mean 	0.91046704025939
scalar Network.dyn_peer[231] 	lookupHopsSig:mean 	25
scalar Network.dyn_peer[232] 	lookupTimeSig:mean 	2.6714285714286
scalar Network.dyn_peer[232] 	lookupStabilitySig:mean 	0.95324572056
scalar Network.dyn_peer[232] 	lookupHopsSig:mean 	25.857142857143
scalar Network.dyn_peer[233] 	lookupTimeSig:mean 	1.45
scalar Network.dyn_peer[233] 	lookupStabilitySig:mean 	0.22083445265889
scalar Network.dyn_peer[233] 	lookupHopsSig:mean 	13.75
scalar Network.dyn_peer[234] 	lookupTimeSig:mean 	2.3
scalar Network.dyn_peer[234] 	lookupStabilitySig:mean 	0.62616428434849
scalar Network.dyn_peer[234] 	lookupHopsSig:mean 	22.2
scalar Network.dyn_peer[235] 	lookupTimeSig:mean 	1.55
scalar Network.dyn_peer[235] 	lookupStabilitySig:mean 	0.31311274319887
scalar Network.dyn_peer[235] 	lookupHopsSig:mean 	14.75
scalar Network.dyn_peer[236] 	lookupTimeSig:mean 	1.6857142857143
scalar Network.dyn_peer[236] 	lookupStabilitySig:mean 	0.94493934844754
scalar Network.dyn_peer[236] 	lookupHopsSig:mean 	16
scalar Network.dyn_peer[237] 	lookupTimeSig:mean 	1.725
scalar Network.dyn_peer[237] 	lookupStabilitySig:mean 	0.30081626866013
scalar Network.dyn_peer[237] 	lookupHopsSig:mean 	16.5
scalar Network.dyn_peer[238] 	lookupTimeSig:mean 	2.85
scalar Network.dyn_peer[238] 	lookupStabilitySig:mean 	0.30434785038233
scalar Network.dyn_peer[238] 	lookupHopsSig:mean 	28
scalar Network.dyn_peer[239] 	lookupTimeSig:mean 	2.1333333333333
scalar Network.dyn_peer[239] 	lookupStabilitySig:mean 	0.13712121049563
scalar Network.dyn_peer[239] 	lookupHopsSig:mean 	20.666666666667
scalar Network.dyn_peer[240] 	lookupTimeSig:mean 	1.7272727272727
scalar Network.dyn_peer[240] 	lookupStabilitySig:mean 	0.93130477094515
scalar Network.dyn_peer[240] 	lookupHopsSig:mean 	16.363636363636
scalar Network.dyn_peer[241] 	lookupTimeSig:mean 	2.6
scalar Network.dyn_peer[241] 	lookupStabilitySig:mean 	0.65071567349757
scalar Network.dyn_peer[241] 	lookupHopsSig:mean 	25.166666666667
scalar Network.dyn_peer[242] 	lookupTimeSig:mean 	2.2571428571429
scalar Network.dyn_peer[242] 	lookupStabilitySig:mean 	0.93363756327225
scalar Network.dyn_peer[242] 	lookupHopsSig:mean 	21.714285714286
scalar Network.dyn_peer[243] 	lookupTimeSig:mean 	0.95
scalar Network.dyn_peer[243] 	lookupStabilitySig:mean 	0.26858972758055
scalar Network.dyn_peer[243] 	lookupHopsSig:mean 	8.75
scalar Network.dyn_peer[244] 	lookupTimeSig:mean 	2.45
scalar Network.dyn_peer[244] 	lookupStabilitySig:mean 	0.80778963631019
scalar Network.dyn_peer[244] 	lookupHopsSig:mean 	23.75
scalar Network.dyn_peer[245] 	lookupTimeSig:mean 	1.1454545454545
scalar Network.dyn_peer[245] 	lookupStabilitySig:mean 	0.72948901499198
scalar Network.dyn_peer[245] 	lookupHopsSig:mean 	10.545454545455
scalar Network.dyn_peer[246] 	lookupTimeSig:mean 	2.65
scalar Network.dyn_peer[246] 	lookupStabilitySig:mean 	0.46516256034374
scalar Network.dyn_peer[246] 	lookupHopsSig:mean 	26
scalar Network.dyn_peer[247] 	lookupTimeSig:mean 	1.46
scalar Network.dyn_peer[247] 	lookupStabilitySig:mean 	0.80991544052958
scalar Network.dyn_peer[247] 	lookupHopsSig:mean 	13.8
scalar Network.dyn_peer[248] 	lookupTimeSig:mean 	1.4857142857143
scalar Network.dyn_peer[248] 	lookupStabilitySig:mean 	0.92332617762232
scalar Network.dyn_peer[248] 	lookupHopsSig:mean 	14
scalar Network.dyn_peer[249] 	lookupTimeSig:mean 	1.9714285714286
scalar Network.dyn_peer[249] 	lookupStabilitySig:mean 	0.93749346051897
scalar Network.dyn_peer[249] 	lookupHopsSig:mean 	18.857142857143
scalar Network.dyn_peer[250] 	lookupTimeSig:mean 	2.1
scalar Network.dyn_peer[250] 	lookupStabilitySig:mean 	0.39321790387233
scalar Network.dyn_peer[250] 	lookupHopsSig:mean 	20.333333333333
scalar Network.dyn_peer[251] 	lookupTimeSig:mean 	2.3
scalar Network.dyn_peer[251] 	lookupStabilitySig:mean 	0.79877816559747
scalar Network.dyn_peer[251] 	lookupHopsSig:mean 	22.166666666667
scalar Network.dyn_peer[252] 	lookupTimeSig:mean 	1.65
scalar Network.dyn_peer[252] 	lookupStabilitySig:mean 	0.32391436956823
scalar Network.dyn_peer[252] 	lookupHopsSig:mean 	15.75
scalar Network.dyn_peer[253] 	lookupTimeSig:mean 	1.5857142857143
scalar Network.dyn_peer[253] 	lookupStabilitySig:mean 	0.70504796451756
scalar Network.dyn_peer[253] 	lookupHopsSig:mean 	15
scalar Network.dyn_peer[254] 	lookupTimeSig:mean 	0.75
scalar Network.dyn_peer[254] 	lookupStabilitySig:mean 	0.33035713806748
scalar Network.dyn_peer[254] 	lookupHopsSig:mean 	6.75
scalar Network.dyn_peer[255] 	lookupTimeSig:mean 	1.5333333333333
scalar Network.dyn_peer[255] 	lookupStabilitySig:mean 	0.26581800977389
scalar Network.dyn_peer[255] 	lookupHopsSig:mean 	14.666666666667
scalar Network.dyn_peer[256] 	lookupTimeSig:mean 	2.42
scalar Network.dyn_peer[256] 	lookupStabilitySig:mean 	0.4558396583423
scalar Network.dyn_peer[256] 	lookupHopsSig:mean 	23.4
scalar Network.dyn_peer[257] 	lookupTimeSig:mean 	2.2285714285714
scalar Network.dyn_peer[257] 	lookupStabilitySig:mean 	0.95784659909883
scalar Network.dyn_peer[257] 	lookupHopsSig:mean 	21.428571428571
scalar Network.dyn_peer[258] 	lookupTimeSig:mean 	2.84
scalar Network.dyn_peer[258] 	lookupStabilitySig:mean 	0.60140122063458
scalar Network.dyn_peer[258] 	lookupHopsSig:mean 	27.6
scalar Network.dyn_peer[259] 	lookupTimeSig:mean 	2
scalar Network.dyn_peer[259] 	lookupStabilitySig:mean 	0.94607749913952
scalar Network.dyn_peer[259] 	lookupHopsSig:mean 	19.142857142857
scalar Network.dyn_peer[260] 	lookupTimeSig:mean 	1.4166666666667
scalar Network.dyn_peer[260] 	lookupStabilitySig:mean 	0.5208453796804
scalar Network.dyn_peer[260] 	lookupHopsSig:mean 	13.333333333333
scalar Network.dyn_peer[261] 	lookupTimeSig:mean 	0.86
scalar Network.dyn_peer[261] 	lookupStabilitySig:mean 	0.41319397389889
scalar Network.dyn_peer[261] 	lookupHopsSig:mean 	7.8
scalar Network.dyn_peer[262] 	lookupTimeSig:mean 	3.75
scalar Network.dyn_peer[262] 	lookupStabilitySig:mean 	0.73473141714931
scalar Network.dyn_peer[262] 	lookupHopsSig:mean 	37
scalar Network.dyn_peer[263] 	lookupTimeSig:mean 	1.6
scalar Network.dyn_peer[263] 	lookupStabilitySig:mean 	-0.2018970400095
scalar Network.dyn_peer[263] 	lookupHopsSig:mean 	15.5
scalar Network.dyn_peer[264] 	lookupTimeSig:mean 	2.12
scalar Network.dyn_peer[264] 	lookupStabilitySig:mean 	0.84847827032208
scalar Network.dyn_peer[264] 	lookupHopsSig:mean 	20.4
scalar Network.dyn_peer[265] 	lookupTimeSig:mean 	1.2428571428571
scalar Network.dyn_peer[265] 	lookupStabilitySig:mean 	0.90866327884474
scalar Network.dyn_peer[265] 	lookupHopsSig:mean 	11.571428571429
scalar Network.dyn_peer[266] 	lookupTimeSig:mean 	2.1
scalar Network.dyn_peer[266] 	lookupStabilitySig:mean 	-0.037139713764191
scalar Network.dyn_peer[266] 	lookupHopsSig:mean 	20.5
scalar Network.dyn_peer[267] 	lookupTimeSig:mean 	2.6
scalar Network.dyn_peer[267] 	lookupStabilitySig:mean 	0.39210888184607
scalar Network.dyn_peer[267] 	lookupHopsSig:mean 	25.333333333333
scalar Network.dyn_peer[268] 	lookupTimeSig:mean 	1.55
scalar Network.dyn_peer[268] 	lookupStabilitySig:mean 	0.48428576036046
scalar Network.dyn_peer[268] 	lookupHopsSig:mean 	14.666666666667
scalar Network.dyn_peer[269] 	lookupTimeSig:mean 	0.85714285714286
scalar Network.dyn_peer[269] 	lookupStabilitySig:mean 	0.79291940272586
scalar Network.dyn_peer[269] 	lookupHopsSig:mean 	7.6428571428571
scalar Network.dyn_peer[270] 	lookupTimeSig:mean 	1.8454545454545
scalar Network.dyn_peer[270] 	lookupStabilitySig:mean 	0.96263525258242
scalar Network.dyn_peer[270] 	lookupHopsSig:mean 	17.545454545455
scalar Network.dyn_peer[271] 	lookupTimeSig:mean 	2.2
scalar Network.dyn_peer[271] 	lookupStabilitySig:mean 	0.46083631925285
scalar Network.dyn_peer[271] 	lookupHopsSig:mean 	21.25
scalar Network.dyn_peer[272] 	lookupTimeSig:mean 	1.8666666666667
scalar Network.dyn_peer[272] 	lookupStabilitySig:mean 	0.25042736033599
scalar Network.dyn_peer[272] 	lookupHopsSig:mean 	18
scalar Network.dyn_peer[273] 	lookupTimeSig:mean 	3.74
scalar Network.dyn_peer[273] 	lookupStabilitySig:mean 	0.86623547002673
scalar Network.dyn_peer[273] 	lookupHopsSig:mean 	36.6
scalar Network.dyn_peer[274] 	lookupTimeSig:mean 	2.1
scalar Network.dyn_peer[274] 	lookupStabilitySig:mean 	0.63123359451337
scalar Network.dyn_peer[274] 	lookupHopsSig:mean 	20.142857142857
scalar Network.dyn_peer[275] 	lookupTimeSig:mean 	1.06
scalar Network.dyn_peer[275] 	lookupStabilitySig:mean 	0.34402448534966
scalar Network.dyn_peer[275] 	lookupHopsSig:mean 	9.8
scalar Network.dyn_peer[276] 	lookupTimeSig:mean 	1.9333333333333
scalar Network.dyn_peer[276] 	lookupStabilitySig:mean 	0.47407409052054
scalar Network.dyn_peer[276] 	lookupHopsSig:mean 	18.666666666667
scalar Network.dyn_peer[277] 	lookupTimeSig:mean 	0.6
scalar Network.dyn_peer[277] 	lookupStabilitySig:mean 	0.18055554231008
scalar Network.dyn_peer[277] 	lookupHopsSig:mean 	5.3333333333333
scalar Network.dyn_peer[278] 	lookupTimeSig:mean 	1.7
scalar Network.dyn_peer[278] 	lookupStabilitySig:mean 	0.55957447737455
scalar Network.dyn_peer[278] 	lookupHopsSig:mean 	16.5
scalar Network.dyn_peer[279] 	lookupTimeSig:mean 	1.6428571428571
scalar Network.dyn_peer[279] 	lookupStabilitySig:mean 	0.58466683647462
scalar Network.dyn_peer[279] 	lookupHopsSig:mean 	15.571428571429
scalar Network.dyn_peer[280] 	lookupTimeSig:mean 	2.06
scalar Network.dyn_peer[280] 	lookupStabilitySig:mean 	0.51984963342547
scalar Network.dyn_peer[280] 	lookupHopsSig:mean 	19.8
scalar Network.dyn_peer[281] 	lookupTimeSig:mean 	2.2
scalar Network.dyn_peer[281] 	lookupStabilitySig:mean 	0.14221763114134
scalar Network.dyn_peer[281] 	lookupHopsSig:mean 	21.333333333333
scalar Network.dyn_peer[282] 	lookupTimeSig:mean 	2.4333333333333
scalar Network.dyn_peer[282] 	lookupStabilitySig:mean 	0.92938724036018
scalar Network.dyn_peer[282] 	lookupHopsSig:mean 	23.5
scalar Network.dyn_peer[283] 	lookupTimeSig:mean 	1.18
scalar Network.dyn_peer[283] 	lookupStabilitySig:mean 	0.82189381141216
scalar Network.dyn_peer[283] 	lookupHopsSig:mean 	11
scalar Network.dyn_peer[284] 	lookupTimeSig:mean 	2.325
scalar Network.dyn_peer[284] 	lookupStabilitySig:mean 	0.5762386303395
scalar Network.dyn_peer[284] 	lookupHopsSig:mean 	22.5
scalar Network.dyn_peer[285] 	lookupTimeSig:mean 	2.1
scalar Network.dyn_peer[285] 	lookupStabilitySig:mean 	0.7901362594631
scalar Network.dyn_peer[285] 	lookupHopsSig:mean 	20.111111111111
scalar Network.dyn_peer[286] 	lookupTimeSig:mean 	1.45
scalar Network.dyn_peer[286] 	lookupStabilitySig:mean 	0.8789902292192
scalar Network.dyn_peer[286] 	lookupHopsSig:mean 	13.666666666667
scalar Network.dyn_peer[287] 	lookupTimeSig:mean 	3.125
scalar Network.dyn_peer[287] 	lookupStabilitySig:mean 	0.89097439055331
scalar Network.dyn_peer[287] 	lookupHopsSig:mean 	30.5
scalar Network.dyn_peer[288] 	lookupTimeSig:mean 	1.4444444444444
scalar Network.dyn_peer[288] 	lookupStabilitySig:mean 	0.77275430949198
scalar Network.dyn_peer[288] 	lookupHopsSig:mean 	13.555555555556
scalar Network.dyn_peer[289] 	lookupTimeSig:mean 	1.9714285714286
scalar Network.dyn_peer[289] 	lookupStabilitySig:mean 	0.83102532955153
scalar Network.dyn_peer[289] 	lookupHopsSig:mean 	18.857142857143
scalar Network.dyn_peer[290] 	lookupTimeSig:mean 	1.3166666666667
scalar Network.dyn_peer[290] 	lookupStabilitySig:mean 	0.54998615818719
scalar Network.dyn_peer[290] 	lookupHopsSig:mean 	12.333333333333
scalar Network.dyn_peer[291] 	lookupTimeSig:mean 	2.7666666666667
scalar Network.dyn_peer[291] 	lookupStabilitySig:mean 	0.90843364937852
scalar Network.dyn_peer[291] 	lookupHopsSig:mean 	26.833333333333
scalar Network.dyn_peer[292] 	lookupTimeSig:mean 	0.86666666666667
scalar Network.dyn_peer[292] 	lookupStabilitySig:mean 	0.72942107714092
scalar Network.dyn_peer[292] 	lookupHopsSig:mean 	7.8333333333333
scalar Network.dyn_peer[293] 	lookupTimeSig:mean 	2.875
scalar Network.dyn_peer[293] 	lookupStabilitySig:mean 	0.36608403734863
scalar Network.dyn_peer[293] 	lookupHopsSig:mean 	28
scalar Network.dyn_peer[294] 	lookupTimeSig:mean 	1.4714285714286
scalar Network.dyn_peer[294] 	lookupStabilitySig:mean 	0.75054662940758
scalar Network.dyn_peer[294] 	lookupHopsSig:mean 	13.857142857143
scalar Network.dyn_peer[295] 	lookupTimeSig:mean 	2.0333333333333
scalar Network.dyn_peer[295] 	lookupStabilitySig:mean 	0.67294902727008
scalar Network.dyn_peer[295] 	lookupHopsSig:mean 	19.666666666667
scalar Network.dyn_peer[296] 	lookupTimeSig:mean 	2.7875
scalar Network.dyn_peer[296] 	lookupStabilitySig:mean 	0.91712333890609
scalar Network.dyn_peer[296] 	lookupHopsSig:mean 	27
scalar Network.dyn_peer[297] 	lookupTimeSig:mean 	2.925
scalar Network.dyn_peer[297] 	lookupStabilitySig:mean 	0.40215723961592
scalar Network.dyn_peer[297] 	lookupHopsSig:mean 	28.5
scalar Network.dyn_peer[298] 	lookupTimeSig:mean 	2.0125
scalar Network.dyn_peer[298] 	lookupStabilitySig:mean 	0.92925205643405
scalar Network.dyn_peer[298] 	lookupHopsSig:mean 	19.25
scalar Network.dyn_peer[299] 	lookupTimeSig:mean 	1.7142857142857
scalar Network.dyn_peer[299] 	lookupStabilitySig:mean 	0.61077443496989
scalar Network.dyn_peer[299] 	lookupHopsSig:mean 	16.285714285714
scalar Network.dyn_peer[300] 	lookupTimeSig:mean 	4.1333333333333
scalar Network.dyn_peer[300] 	lookupStabilitySig:mean 	0.79513577992717
scalar Network.dyn_peer[300] 	lookupHopsSig:mean 	40.666666666667
scalar Network.dyn_peer[301] 	lookupTimeSig:mean 	2.7222222222222
scalar Network.dyn_peer[301] 	lookupStabilitySig:mean 	0.94711240929448
scalar Network.dyn_peer[301] 	lookupHopsSig:mean 	26.333333333333
scalar Network.dyn_peer[302] 	lookupTimeSig:mean 	1.8666666666667
scalar Network.dyn_peer[302] 	lookupStabilitySig:mean 	0.55928664064656
scalar Network.dyn_peer[302] 	lookupHopsSig:mean 	17.833333333333
scalar Network.dyn_peer[303] 	lookupTimeSig:mean 	2.3222222222222
scalar Network.dyn_peer[303] 	lookupStabilitySig:mean 	0.76018432000031
scalar Network.dyn_peer[303] 	lookupHopsSig:mean 	22.333333333333
scalar Network.dyn_peer[304] 	lookupTimeSig:mean 	1.4
scalar Network.dyn_peer[304] 	lookupStabilitySig:mean 	0.61436275690794
scalar Network.dyn_peer[304] 	lookupHopsSig:mean 	13.2
scalar Network.dyn_peer[305] 	lookupTimeSig:mean 	2.48
scalar Network.dyn_peer[305] 	lookupStabilitySig:mean 	0.68429623488337
scalar Network.dyn_peer[305] 	lookupHopsSig:mean 	24
scalar Network.dyn_peer[306] 	lookupTimeSig:mean 	0.975
scalar Network.dyn_peer[306] 	lookupStabilitySig:mean 	0.40849341638386
scalar Network.dyn_peer[306] 	lookupHopsSig:mean 	9
scalar Network.dyn_peer[307] 	lookupTimeSig:mean 	2.1857142857143
scalar Network.dyn_peer[307] 	lookupStabilitySig:mean 	0.90297086044614
scalar Network.dyn_peer[307] 	lookupHopsSig:mean 	21
scalar Network.dyn_peer[308] 	lookupTimeSig:mean 	2.7
scalar Network.dyn_peer[308] 	lookupStabilitySig:mean 	0.88415951374918
scalar Network.dyn_peer[308] 	lookupHopsSig:mean 	26.25
scalar Network.dyn_peer[309] 	lookupTimeSig:mean 	1.85
scalar Network.dyn_peer[309] 	lookupStabilitySig:mean 	0.8382270519156
scalar Network.dyn_peer[309] 	lookupHopsSig:mean 	17.6
scalar Network.dyn_peer[310] 	lookupTimeSig:mean 	2.6
scalar Network.dyn_peer[310] 	lookupStabilitySig:mean 	-0.067042618989944
scalar Network.dyn_peer[310] 	lookupHopsSig:mean 	25.5
scalar Network.dyn_peer[311] 	lookupTimeSig:mean 	1.36
scalar Network.dyn_peer[311] 	lookupStabilitySig:mean 	0.46458029262722
scalar Network.dyn_peer[311] 	lookupHopsSig:mean 	12.8
scalar Network.dyn_peer[312] 	lookupTimeSig:mean 	2.5
scalar Network.dyn_peer[312] 	lookupStabilitySig:mean 	0.928312387201
scalar Network.dyn_peer[312] 	lookupHopsSig:mean 	24.125
scalar Network.dyn_peer[313] 	lookupTimeSig:mean 	2.85
scalar Network.dyn_peer[313] 	lookupStabilitySig:mean 	0.60445261374116
scalar Network.dyn_peer[313] 	lookupHopsSig:mean 	27.75
scalar Network.dyn_peer[314] 	lookupTimeSig:mean 	2.0125
scalar Network.dyn_peer[314] 	lookupStabilitySig:mean 	0.8036781718547
scalar Network.dyn_peer[314] 	lookupHopsSig:mean 	19.25
scalar Network.dyn_peer[315] 	lookupTimeSig:mean 	3.075
scalar Network.dyn_peer[315] 	lookupStabilitySig:mean 	0.91106490325183
scalar Network.dyn_peer[315] 	lookupHopsSig:mean 	30
scalar Network.dyn_peer[316] 	lookupTimeSig:mean 	1.975
scalar Network.dyn_peer[316] 	lookupStabilitySig:mean 	0.41548508033156
scalar Network.dyn_peer[316] 	lookupHopsSig:mean 	19
scalar Network.dyn_peer[317] 	lookupTimeSig:mean 	1.8
scalar Network.dyn_peer[317] 	lookupStabilitySig:mean 	0.56152033470571
scalar Network.dyn_peer[317] 	lookupHopsSig:mean 	17.2
scalar Network.dyn_peer[318] 	lookupTimeSig:mean 	2.0333333333333
scalar Network.dyn_peer[318] 	lookupStabilitySig:mean 	0.80298534408212
scalar Network.dyn_peer[318] 	lookupHopsSig:mean 	19.666666666667
scalar Network.dyn_peer[319] 	lookupTimeSig:mean 	1.875
scalar Network.dyn_peer[319] 	lookupStabilitySig:mean 	0.88273948652204
scalar Network.dyn_peer[319] 	lookupHopsSig:mean 	18
scalar Network.dyn_peer[320] 	lookupTimeSig:mean 	1.2181818181818
scalar Network.dyn_peer[320] 	lookupStabilitySig:mean 	0.89712210867385
scalar Network.dyn_peer[320] 	lookupHopsSig:mean 	11.272727272727
scalar Network.dyn_peer[321] 	lookupTimeSig:mean 	2.2833333333333
scalar Network.dyn_peer[321] 	lookupStabilitySig:mean 	0.808758424595
scalar Network.dyn_peer[321] 	lookupHopsSig:mean 	22
scalar Network.dyn_peer[322] 	lookupTimeSig:mean 	1.8666666666667
scalar Network.dyn_peer[322] 	lookupStabilitySig:mean 	0.3983355499804
scalar Network.dyn_peer[322] 	lookupHopsSig:mean 	18
scalar Network.dyn_peer[323] 	lookupTimeSig:mean 	3.3
scalar Network.dyn_peer[323] 	lookupStabilitySig:mean 	0.94933899693812
scalar Network.dyn_peer[323] 	lookupHopsSig:mean 	32.166666666667
scalar Network.dyn_peer[324] 	lookupTimeSig:mean 	1.32
scalar Network.dyn_peer[324] 	lookupStabilitySig:mean 	0.62087654024363
scalar Network.dyn_peer[324] 	lookupHopsSig:mean 	12.4
scalar Network.dyn_peer[325] 	lookupTimeSig:mean 	2.35
scalar Network.dyn_peer[325] 	lookupStabilitySig:mean 	0.62264871969819
scalar Network.dyn_peer[325] 	lookupHopsSig:mean 	22.75
scalar Network.dyn_peer[326] 	lookupTimeSig:mean 	1.57
scalar Network.dyn_peer[326] 	lookupStabilitySig:mean 	0.76596362981945
scalar Network.dyn_peer[326] 	lookupHopsSig:mean 	14.8
scalar Network.dyn_peer[327] 	lookupTimeSig:mean 	1.92
scalar Network.dyn_peer[327] 	lookupStabilitySig:mean 	0.8046233125031
scalar Network.dyn_peer[327] 	lookupHopsSig:mean 	18.4
scalar Network.dyn_peer[328] 	lookupTimeSig:mean 	2.54
scalar Network.dyn_peer[328] 	lookupStabilitySig:mean 	0.78283771686256
scalar Network.dyn_peer[328] 	lookupHopsSig:mean 	24.6
scalar Network.dyn_peer[329] 	lookupTimeSig:mean 	2.42
scalar Network.dyn_peer[329] 	lookupStabilitySig:mean 	0.74896262660623
scalar Network.dyn_peer[329] 	lookupHopsSig:mean 	23.4
scalar Network.dyn_peer[330] 	lookupTimeSig:mean 	2.38
scalar Network.dyn_peer[330] 	lookupStabilitySig:mean 	0.53878255449235
scalar Network.dyn_peer[330] 	lookupHopsSig:mean 	23
scalar Network.dyn_peer[331] 	lookupTimeSig:mean 	1.775
scalar Network.dyn_peer[331] 	lookupStabilitySig:mean 	0.88464684505016
scalar Network.dyn_peer[331] 	lookupHopsSig:mean 	16.875
scalar Network.dyn_peer[332] 	lookupTimeSig:mean 	1.6666666666667
scalar Network.dyn_peer[332] 	lookupStabilitySig:mean 	0.8709734533396
scalar Network.dyn_peer[332] 	lookupHopsSig:mean 	15.777777777778
scalar Network.dyn_peer[333] 	lookupTimeSig:mean 	2.8333333333333
scalar Network.dyn_peer[333] 	lookupStabilitySig:mean 	0.3668849306802
scalar Network.dyn_peer[333] 	lookupHopsSig:mean 	27.666666666667
scalar Network.dyn_peer[334] 	lookupTimeSig:mean 	1.75
scalar Network.dyn_peer[334] 	lookupStabilitySig:mean 	0.71684662625194
scalar Network.dyn_peer[334] 	lookupHopsSig:mean 	16.75
scalar Network.dyn_peer[335] 	lookupTimeSig:mean 	1.6333333333333
scalar Network.dyn_peer[335] 	lookupStabilitySig:mean 	0.8707545304464
scalar Network.dyn_peer[335] 	lookupHopsSig:mean 	15.444444444444
scalar Network.dyn_peer[336] 	lookupTimeSig:mean 	2.5
scalar Network.dyn_peer[336] 	lookupStabilitySig:mean 	0.48145127156749
scalar Network.dyn_peer[336] 	lookupHopsSig:mean 	24.25
scalar Network.dyn_peer[337] 	lookupTimeSig:mean 	1.5285714285714
scalar Network.dyn_peer[337] 	lookupStabilitySig:mean 	0.90960850566626
scalar Network.dyn_peer[337] 	lookupHopsSig:mean 	14.428571428571
scalar Network.dyn_peer[338] 	lookupTimeSig:mean 	1.7
scalar Network.dyn_peer[338] 	lookupStabilitySig:mean 	0.44879052639008
scalar Network.dyn_peer[338] 	lookupHopsSig:mean 	16.2
scalar Network.dyn_peer[339] 	lookupTimeSig:mean 	2.0571428571429
scalar Network.dyn_peer[339] 	lookupStabilitySig:mean 	0.92633384965094
scalar Network.dyn_peer[339] 	lookupHopsSig:mean 	19.714285714286
scalar Network.dyn_peer[340] 	lookupTimeSig:mean 	1.7875
scalar Network.dyn_peer[340] 	lookupStabilitySig:mean 	0.86125370836817
scalar Network.dyn_peer[340] 	lookupHopsSig:mean 	17
scalar Network.dyn_peer[341] 	lookupTimeSig:mean 	1.7909090909091
scalar Network.dyn_peer[341] 	lookupStabilitySig:mean 	0.86206964335658
scalar Network.dyn_peer[341] 	lookupHopsSig:mean 	17
scalar Network.dyn_peer[342] 	lookupTimeSig:mean 	2.22
scalar Network.dyn_peer[342] 	lookupStabilitySig:mean 	0.46394694782794
scalar Network.dyn_peer[342] 	lookupHopsSig:mean 	21.4
scalar Network.dyn_peer[343] 	lookupTimeSig:mean 	1
scalar Network.dyn_peer[343] 	lookupStabilitySig:mean 	0.54081925004721
scalar Network.dyn_peer[343] 	lookupHopsSig:mean 	9.2
scalar Network.dyn_peer[344] 	lookupTimeSig:mean 	1.0333333333333
scalar Network.dyn_peer[344] 	lookupStabilitySig:mean 	0.13333334028721
scalar Network.dyn_peer[344] 	lookupHopsSig:mean 	9.6666666666667
scalar Network.dyn_peer[345] 	lookupTimeSig:mean 	1.975
scalar Network.dyn_peer[345] 	lookupStabilitySig:mean 	0.77465445012785
scalar Network.dyn_peer[345] 	lookupHopsSig:mean 	18.875
scalar Network.dyn_peer[346] 	lookupTimeSig:mean 	0.76666666666667
scalar Network.dyn_peer[346] 	lookupStabilitySig:mean 	0.20254010458787
scalar Network.dyn_peer[346] 	lookupHopsSig:mean 	7
scalar Network.dyn_peer[347] 	lookupTimeSig:mean 	1.9166666666667
scalar Network.dyn_peer[347] 	lookupStabilitySig:mean 	0.65721846433977
scalar Network.dyn_peer[347] 	lookupHopsSig:mean 	18.333333333333
scalar Network.dyn_peer[348] 	lookupTimeSig:mean 	2.3333333333333
scalar Network.dyn_peer[348] 	lookupStabilitySig:mean 	0.74308607727289
scalar Network.dyn_peer[348] 	lookupHopsSig:mean 	22.666666666667
scalar Network.dyn_peer[349] 	lookupTimeSig:mean 	2.2333333333333
scalar Network.dyn_peer[349] 	lookupStabilitySig:mean 	0.65148394135758
scalar Network.dyn_peer[349] 	lookupHopsSig:mean 	21.5
scalar Network.dyn_peer[350] 	lookupTimeSig:mean 	1.38
scalar Network.dyn_peer[350] 	lookupStabilitySig:mean 	0.48224931955338
scalar Network.dyn_peer[350] 	lookupHopsSig:mean 	13
scalar Network.dyn_peer[351] 	lookupTimeSig:mean 	1.4333333333333
scalar Network.dyn_peer[351] 	lookupStabilitySig:mean 	0.37173142035802
scalar Network.dyn_peer[351] 	lookupHopsSig:mean 	13.666666666667
scalar Network.dyn_peer[352] 	lookupTimeSig:mean 	2.5666666666667
scalar Network.dyn_peer[352] 	lookupStabilitySig:mean 	0.70880098640919
scalar Network.dyn_peer[352] 	lookupHopsSig:mean 	25
scalar Network.dyn_peer[353] 	lookupTimeSig:mean 	1.3857142857143
scalar Network.dyn_peer[353] 	lookupStabilitySig:mean 	0.87957852220695
scalar Network.dyn_peer[353] 	lookupHopsSig:mean 	13
scalar Network.dyn_peer[354] 	lookupTimeSig:mean 	3.4333333333333
scalar Network.dyn_peer[354] 	lookupStabilitySig:mean 	0.21974790841341
scalar Network.dyn_peer[354] 	lookupHopsSig:mean 	33.666666666667
scalar Network.dyn_peer[355] 	lookupTimeSig:mean 	1.6285714285714
scalar Network.dyn_peer[355] 	lookupStabilitySig:mean 	0.88572284366403
scalar Network.dyn_peer[355] 	lookupHopsSig:mean 	15.428571428571
scalar Network.dyn_peer[356] 	lookupTimeSig:mean 	0.9
scalar Network.dyn_peer[356] 	lookupStabilitySig:mean 	0.21388890345891
scalar Network.dyn_peer[356] 	lookupHopsSig:mean 	8.3333333333333
scalar Network.dyn_peer[357] 	lookupTimeSig:mean 	1.9
scalar Network.dyn_peer[357] 	lookupStabilitySig:mean 	0.58815821042905
scalar Network.dyn_peer[357] 	lookupHopsSig:mean 	18.166666666667
scalar Network.dyn_peer[358] 	lookupTimeSig:mean 	1.3571428571429
scalar Network.dyn_peer[358] 	lookupStabilitySig:mean 	0.68450259310859
scalar Network.dyn_peer[358] 	lookupHopsSig:mean 	12.714285714286
scalar Network.dyn_peer[359] 	lookupTimeSig:mean 	1.0857142857143
scalar Network.dyn_peer[359] 	lookupStabilitySig:mean 	0.63534252984183
scalar Network.dyn_peer[359] 	lookupHopsSig:mean 	10
scalar Network.dyn_peer[360] 	lookupTimeSig:mean 	1.7
scalar Network.dyn_peer[360] 	lookupStabilitySig:mean 	0.46562069933861
scalar Network.dyn_peer[360] 	lookupHopsSig:mean 	16.25
scalar Network.dyn_peer[361] 	lookupTimeSig:mean 	2.4
scalar Network.dyn_peer[361] 	lookupStabilitySig:mean 	0.59939849656075
scalar Network.dyn_peer[361] 	lookupHopsSig:mean 	23.25
scalar Network.dyn_peer[362] 	lookupTimeSig:mean 	1.3857142857143
scalar Network.dyn_peer[362] 	lookupStabilitySig:mean 	0.87930368046675
scalar Network.dyn_peer[362] 	lookupHopsSig:mean 	13
scalar Network.dyn_peer[363] 	lookupTimeSig:mean 	1.2666666666667
scalar Network.dyn_peer[363] 	lookupStabilitySig:mean 	0.811817759441
scalar Network.dyn_peer[363] 	lookupHopsSig:mean 	11.777777777778
scalar Network.dyn_peer[364] 	lookupTimeSig:mean 	1.8625
scalar Network.dyn_peer[364] 	lookupStabilitySig:mean 	0.80222228949424
scalar Network.dyn_peer[364] 	lookupHopsSig:mean 	17.75
scalar Network.dyn_peer[365] 	lookupTimeSig:mean 	2.0571428571429
scalar Network.dyn_peer[365] 	lookupStabilitySig:mean 	0.68232265407486
scalar Network.dyn_peer[365] 	lookupHopsSig:mean 	19.714285714286
scalar Network.dyn_peer[366] 	lookupTimeSig:mean 	2.5666666666667
scalar Network.dyn_peer[366] 	lookupStabilitySig:mean 	0.87373839256664
scalar Network.dyn_peer[366] 	lookupHopsSig:mean 	24.833333333333
scalar Network.dyn_peer[367] 	lookupTimeSig:mean 	1.7
scalar Network.dyn_peer[367] 	lookupStabilitySig:mean 	0.37979180117448
scalar Network.dyn_peer[367] 	lookupHopsSig:mean 	16.333333333333
scalar Network.dyn_peer[368] 	lookupTimeSig:mean 	1.2
scalar Network.dyn_peer[368] 	lookupStabilitySig:mean 	0.70556408518718
scalar Network.dyn_peer[368] 	lookupHopsSig:mean 	11.111111111111
scalar Network.dyn_peer[369] 	lookupTimeSig:mean 	2.9
scalar Network.dyn_peer[369] 	lookupStabilitySig:mean 	0.91263716761023
scalar Network.dyn_peer[369] 	lookupHopsSig:mean 	28.25
scalar Network.dyn_peer[370] 	lookupTimeSig:mean 	2.175
scalar Network.dyn_peer[370] 	lookupStabilitySig:mean 	0.74941699951887
scalar Network.dyn_peer[370] 	lookupHopsSig:mean 	21
scalar Network.dyn_peer[371] 	lookupTimeSig:mean 	1.4875
scalar Network.dyn_peer[371] 	lookupStabilitySig:mean 	0.64509551040828
scalar Network.dyn_peer[371] 	lookupHopsSig:mean 	14
scalar Network.dyn_peer[372] 	lookupTimeSig:mean 	1.8
scalar Network.dyn_peer[372] 	lookupStabilitySig:mean 	0.39098723232746
scalar Network.dyn_peer[372] 	lookupHopsSig:mean 	17.25
scalar Network.dyn_peer[373] 	lookupTimeSig:mean 	2.2
scalar Network.dyn_peer[373] 	lookupStabilitySig:mean 	0.55376057823499
scalar Network.dyn_peer[373] 	lookupHopsSig:mean 	21.333333333333
scalar Network.dyn_peer[374] 	lookupTimeSig:mean 	2.25
scalar Network.dyn_peer[374] 	lookupStabilitySig:mean 	0.74266899591312
scalar Network.dyn_peer[374] 	lookupHopsSig:mean 	21.6
scalar Network.dyn_peer[375] 	lookupTimeSig:mean 	2.4333333333333
scalar Network.dyn_peer[375] 	lookupStabilitySig:mean 	0.94273949996568
scalar Network.dyn_peer[375] 	lookupHopsSig:mean 	23.5
scalar Network.dyn_peer[376] 	lookupTimeSig:mean 	1.4714285714286
scalar Network.dyn_peer[376] 	lookupStabilitySig:mean 	0.62035232888801
scalar Network.dyn_peer[376] 	lookupHopsSig:mean 	13.857142857143
scalar Network.dyn_peer[377] 	lookupTimeSig:mean 	2.5
scalar Network.dyn_peer[377] 	lookupStabilitySig:mean 	0.66245518128077
scalar Network.dyn_peer[377] 	lookupHopsSig:mean 	24.333333333333
scalar Network.dyn_peer[378] 	lookupTimeSig:mean 	2.44
scalar Network.dyn_peer[378] 	lookupStabilitySig:mean 	0.9295716740191
scalar Network.dyn_peer[378] 	lookupHopsSig:mean 	23.6
scalar Network.dyn_peer[379] 	lookupTimeSig:mean 	1.65
scalar Network.dyn_peer[379] 	lookupStabilitySig:mean 	0.66541998554021
scalar Network.dyn_peer[379] 	lookupHopsSig:mean 	15.75
scalar Network.dyn_peer[380] 	lookupTimeSig:mean 	1.2
scalar Network.dyn_peer[380] 	lookupStabilitySig:mean 	0.87774966248415
scalar Network.dyn_peer[380] 	lookupHopsSig:mean 	11.111111111111
scalar Network.dyn_peer[381] 	lookupTimeSig:mean 	1.925
scalar Network.dyn_peer[381] 	lookupStabilitySig:mean 	0.66163827851415
scalar Network.dyn_peer[381] 	lookupHopsSig:mean 	18.5
scalar Network.dyn_peer[382] 	lookupTimeSig:mean 	1.5777777777778
scalar Network.dyn_peer[382] 	lookupStabilitySig:mean 	0.8290567874598
scalar Network.dyn_peer[382] 	lookupHopsSig:mean 	14.888888888889
scalar Network.dyn_peer[383] 	lookupTimeSig:mean 	1.56
scalar Network.dyn_peer[383] 	lookupStabilitySig:mean 	0.55571604929864
scalar Network.dyn_peer[383] 	lookupHopsSig:mean 	14.8
scalar Network.dyn_peer[384] 	lookupTimeSig:mean 	1.5
scalar Network.dyn_peer[384] 	lookupStabilitySig:mean 	0.43387175351381
scalar Network.dyn_peer[384] 	lookupHopsSig:mean 	14.25
scalar Network.dyn_peer[385] 	lookupTimeSig:mean 	1.2
scalar Network.dyn_peer[385] 	lookupStabilitySig:mean 	0.44180789589882
scalar Network.dyn_peer[385] 	lookupHopsSig:mean 	11.333333333333
scalar Network.dyn_peer[386] 	lookupTimeSig:mean 	2.18
scalar Network.dyn_peer[386] 	lookupStabilitySig:mean 	0.4754366658628
scalar Network.dyn_peer[386] 	lookupHopsSig:mean 	21
scalar Network.dyn_peer[387] 	lookupTimeSig:mean 	1.6
scalar Network.dyn_peer[387] 	lookupStabilitySig:mean 	0.78778429869562
scalar Network.dyn_peer[387] 	lookupHopsSig:mean 	15.2
scalar Network.dyn_peer[388] 	lookupTimeSig:mean 	1.8
scalar Network.dyn_peer[388] 	lookupStabilitySig:mean 	0.83273354975972
scalar Network.dyn_peer[388] 	lookupHopsSig:mean 	17.125
scalar Network.dyn_peer[389] 	lookupTimeSig:mean 	1.9
scalar Network.dyn_peer[389] 	lookupStabilitySig:mean 	0.23288468023141
scalar Network.dyn_peer[389] 	lookupHopsSig:mean 	18.333333333333
scalar Network.dyn_peer[390] 	lookupTimeSig:mean 	2.62
scalar Network.dyn_peer[390] 	lookupStabilitySig:mean 	0.87925021722913
scalar Network.dyn_peer[390] 	lookupHopsSig:mean 	25.4
scalar Network.dyn_peer[391] 	lookupTimeSig:mean 	3.6333333333333
scalar Network.dyn_peer[391] 	lookupStabilitySig:mean 	0.82076836625735
scalar Network.dyn_peer[391] 	lookupHopsSig:mean 	35.666666666667
scalar Network.dyn_peer[392] 	lookupTimeSig:mean 	1.6583333333333
scalar Network.dyn_peer[392] 	lookupStabilitySig:mean 	0.85962952153447
scalar Network.dyn_peer[392] 	lookupHopsSig:mean 	15.666666666667
scalar Network.dyn_peer[393] 	lookupTimeSig:mean 	1.6714285714286
scalar Network.dyn_peer[393] 	lookupStabilitySig:mean 	0.88830452013229
scalar Network.dyn_peer[393] 	lookupHopsSig:mean 	15.857142857143
scalar Network.dyn_peer[394] 	lookupTimeSig:mean 	1.6
scalar Network.dyn_peer[394] 	lookupStabilitySig:mean 	0.63694299757481
scalar Network.dyn_peer[394] 	lookupHopsSig:mean 	15.25
scalar Network.dyn_peer[395] 	lookupTimeSig:mean 	1.6
scalar Network.dyn_peer[395] 	lookupStabilitySig:mean 	0.48377505987883
scalar Network.dyn_peer[395] 	lookupHopsSig:mean 	15.2
scalar Network.dyn_peer[396] 	lookupTimeSig:mean 	1.7454545454545
scalar Network.dyn_peer[396] 	lookupStabilitySig:mean 	0.91621068086136
scalar Network.dyn_peer[396] 	lookupHopsSig:mean 	16.545454545455
scalar Network.dyn_peer[397] 	lookupTimeSig:mean 	2.0166666666667
scalar Network.dyn_peer[397] 	lookupStabilitySig:mean 	0.8351998605455
scalar Network.dyn_peer[397] 	lookupHopsSig:mean 	19.333333333333
scalar Network.dyn_peer[398] 	lookupTimeSig:mean 	2.275
scalar Network.dyn_peer[398] 	lookupStabilitySig:mean 	0.67636815086007
scalar Network.dyn_peer[398] 	lookupHopsSig:mean 	22
scalar Network.dyn_peer[399] 	lookupTimeSig:mean 	1.9428571428571
scalar Network.dyn_peer[399] 	lookupStabilitySig:mean 	0.68246026669762
scalar Network.dyn_peer[399] 	lookupHopsSig:mean 	18.571428571429
scalar Network.dyn_peer[400] 	lookupTimeSig:mean 	1.54
scalar Network.dyn_peer[400] 	lookupStabilitySig:mean 	0.93487989865243
scalar Network.dyn_peer[400] 	lookupHopsSig:mean 	14.5
scalar Network.dyn_peer[401] 	lookupTimeSig:mean 	1.5833333333333
scalar Network.dyn_peer[401] 	lookupStabilitySig:mean 	0.66611732775345
scalar Network.dyn_peer[401] 	lookupHopsSig:mean 	15
scalar Network.dyn_peer[402] 	lookupTimeSig:mean 	1.7
scalar Network.dyn_peer[402] 	lookupStabilitySig:mean 	0.8269210320173
scalar Network.dyn_peer[402] 	lookupHopsSig:mean 	16.111111111111
scalar Network.dyn_peer[403] 	lookupTimeSig:mean 	1.6333333333333
scalar Network.dyn_peer[403] 	lookupStabilitySig:mean 	0.91741452066021
scalar Network.dyn_peer[403] 	lookupHopsSig:mean 	15.444444444444
scalar Network.dyn_peer[404] 	lookupTimeSig:mean 	1.3833333333333
scalar Network.dyn_peer[404] 	lookupStabilitySig:mean 	0.82350156401905
scalar Network.dyn_peer[404] 	lookupHopsSig:mean 	12.916666666667
scalar Network.dyn_peer[405] 	lookupTimeSig:mean 	1.58
scalar Network.dyn_peer[405] 	lookupStabilitySig:mean 	0.6600638449192
scalar Network.dyn_peer[405] 	lookupHopsSig:mean 	15
scalar Network.dyn_peer[406] 	lookupTimeSig:mean 	2
scalar Network.dyn_peer[406] 	lookupStabilitySig:mean 	0.53290737271309
scalar Network.dyn_peer[406] 	lookupHopsSig:mean 	19.2
scalar Network.dyn_peer[407] 	lookupTimeSig:mean 	1.2
scalar Network.dyn_peer[407] 	lookupStabilitySig:mean 	0.71633230266161
scalar Network.dyn_peer[407] 	lookupHopsSig:mean 	11.090909090909
scalar Network.dyn_peer[408] 	lookupTimeSig:mean 	1.8142857142857
scalar Network.dyn_peer[408] 	lookupStabilitySig:mean 	0.80223898629525
scalar Network.dyn_peer[408] 	lookupHopsSig:mean 	17.285714285714
scalar Network.dyn_peer[409] 	lookupTimeSig:mean 	1.47
scalar Network.dyn_peer[409] 	lookupStabilitySig:mean 	0.81529057454318
scalar Network.dyn_peer[409] 	lookupHopsSig:mean 	13.8
scalar Network.dyn_peer[410] 	lookupTimeSig:mean 	2.95
scalar Network.dyn_peer[410] 	lookupStabilitySig:mean 	0.35057209432125
scalar Network.dyn_peer[410] 	lookupHopsSig:mean 	29
scalar Network.dyn_peer[411] 	lookupTimeSig:mean 	2.0333333333333
scalar Network.dyn_peer[411] 	lookupStabilitySig:mean 	0.38358686864376
scalar Network.dyn_peer[411] 	lookupHopsSig:mean 	19.666666666667
scalar Network.dyn_peer[412] 	lookupTimeSig:mean 	1.04
scalar Network.dyn_peer[412] 	lookupStabilitySig:mean 	0.57790404167026
scalar Network.dyn_peer[412] 	lookupHopsSig:mean 	9.6
scalar Network.dyn_peer[413] 	lookupTimeSig:mean 	1.825
scalar Network.dyn_peer[413] 	lookupStabilitySig:mean 	0.74168877117336
scalar Network.dyn_peer[413] 	lookupHopsSig:mean 	17.5
scalar Network.dyn_peer[414] 	lookupTimeSig:mean 	1.85
scalar Network.dyn_peer[414] 	lookupStabilitySig:mean 	0.7291590385139
scalar Network.dyn_peer[414] 	lookupHopsSig:mean 	17.75
scalar Network.dyn_peer[415] 	lookupTimeSig:mean 	3.45
scalar Network.dyn_peer[415] 	lookupStabilitySig:mean 	0.91012122295797
scalar Network.dyn_peer[415] 	lookupHopsSig:mean 	33.75
scalar Network.dyn_peer[416] 	lookupTimeSig:mean 	1.1
scalar Network.dyn_peer[416] 	lookupStabilitySig:mean 	-0.17708331346512
scalar Network.dyn_peer[416] 	lookupHopsSig:mean 	10.5
scalar Network.dyn_peer[417] 	lookupTimeSig:mean 	2.68
scalar Network.dyn_peer[417] 	lookupStabilitySig:mean 	0.95712718097493
scalar Network.dyn_peer[417] 	lookupHopsSig:mean 	25.9
scalar Network.dyn_peer[418] 	lookupTimeSig:mean 	1.2571428571429
scalar Network.dyn_peer[418] 	lookupStabilitySig:mean 	0.87512307081904
scalar Network.dyn_peer[418] 	lookupHopsSig:mean 	11.714285714286
scalar Network.dyn_peer[419] 	lookupTimeSig:mean 	1.6555555555556
scalar Network.dyn_peer[419] 	lookupStabilitySig:mean 	0.75773975801551
scalar Network.dyn_peer[419] 	lookupHopsSig:mean 	15.666666666667
[...]
scalar Network.dyn_peer[895] 	lookupHopsSig:mean 	27.285714285714
scalar Network.dyn_peer[896] 	lookupTimeSig:mean 	2.4
scalar Network.dyn_peer[896] 	lookupStabilitySig:mean 	0.95089818288883
scalar Network.dyn_peer[896] 	lookupHopsSig:mean 	23.111111111111
scalar Network.dyn_peer[897] 	lookupTimeSig:mean 	4.5
scalar Network.dyn_peer[897] 	lookupStabilitySig:mean 	0.92214612973233
scalar Network.dyn_peer[897] 	lookupHopsSig:mean 	44.333333333333
scalar Network.dyn_peer[898] 	lookupTimeSig:mean 	1.8888888888889
scalar Network.dyn_peer[898] 	lookupStabilitySig:mean 	0.92332054747062
scalar Network.dyn_peer[898] 	lookupHopsSig:mean 	18
scalar Network.dyn_peer[899] 	lookupTimeSig:mean 	1.95
scalar Network.dyn_peer[899] 	lookupStabilitySig:mean 	0.65257398597896
scalar Network.dyn_peer[899] 	lookupHopsSig:mean 	18.75
scalar Network.dyn_peer[900] 	lookupTimeSig:mean 	1.5714285714286
scalar Network.dyn_peer[900] 	lookupStabilitySig:mean 	0.93506735922503
scalar Network.dyn_peer[900] 	lookupHopsSig:mean 	14.857142857143
scalar Network.dyn_peer[901] 	lookupTimeSig:mean 	1.4333333333333
scalar Network.dyn_peer[901] 	lookupStabilitySig:mean 	0.75963193054001
scalar Network.dyn_peer[901] 	lookupHopsSig:mean 	13.666666666667
scalar Network.dyn_peer[902] 	lookupTimeSig:mean 	1.5428571428571
scalar Network.dyn_peer[902] 	lookupStabilitySig:mean 	0.91734023485333
scalar Network.dyn_peer[902] 	lookupHopsSig:mean 	14.571428571429
scalar Network.dyn_peer[903] 	lookupTimeSig:mean 	1.15
scalar Network.dyn_peer[903] 	lookupStabilitySig:mean 	0.95829314331058
scalar Network.dyn_peer[903] 	lookupHopsSig:mean 	10.625
scalar Network.dyn_peer[904] 	lookupTimeSig:mean 	1.4777777777778
scalar Network.dyn_peer[904] 	lookupStabilitySig:mean 	0.78781093605277
scalar Network.dyn_peer[904] 	lookupHopsSig:mean 	13.888888888889
scalar Network.dyn_peer[905] 	lookupTimeSig:mean 	2.4571428571429
scalar Network.dyn_peer[905] 	lookupStabilitySig:mean 	0.94568434690258
scalar Network.dyn_peer[905] 	lookupHopsSig:mean 	23.714285714286
scalar Network.dyn_peer[906] 	lookupTimeSig:mean 	1.9727272727273
scalar Network.dyn_peer[906] 	lookupStabilitySig:mean 	0.97209632701494
scalar Network.dyn_peer[906] 	lookupHopsSig:mean 	18.818181818182
scalar Network.dyn_peer[907] 	lookupTimeSig:mean 	2.5833333333333
scalar Network.dyn_peer[907] 	lookupStabilitySig:mean 	0.95183337790271
scalar Network.dyn_peer[907] 	lookupHopsSig:mean 	25
scalar Network.dyn_peer[908] 	lookupTimeSig:mean 	2.44
scalar Network.dyn_peer[908] 	lookupStabilitySig:mean 	0.85473104864359
scalar Network.dyn_peer[908] 	lookupHopsSig:mean 	23.6
scalar Network.dyn_peer[909] 	lookupTimeSig:mean 	1.8636363636364
scalar Network.dyn_peer[909] 	lookupStabilitySig:mean 	0.9432296004485
scalar Network.dyn_peer[909] 	lookupHopsSig:mean 	17.727272727273
scalar Network.dyn_peer[910] 	lookupTimeSig:mean 	2.08
scalar Network.dyn_peer[910] 	lookupStabilitySig:mean 	0.82792877778411
scalar Network.dyn_peer[910] 	lookupHopsSig:mean 	20
scalar Network.dyn_peer[911] 	lookupTimeSig:mean 	1.8272727272727
scalar Network.dyn_peer[911] 	lookupStabilitySig:mean 	0.97572757513262
scalar Network.dyn_peer[911] 	lookupHopsSig:mean 	17.363636363636
scalar Network.dyn_peer[912] 	lookupTimeSig:mean 	1.9142857142857
scalar Network.dyn_peer[912] 	lookupStabilitySig:mean 	0.94553057849407
scalar Network.dyn_peer[912] 	lookupHopsSig:mean 	18.285714285714
scalar Network.dyn_peer[913] 	lookupTimeSig:mean 	1.7555555555556
scalar Network.dyn_peer[913] 	lookupStabilitySig:mean 	0.95112745619069
scalar Network.dyn_peer[913] 	lookupHopsSig:mean 	16.666666666667
scalar Network.dyn_peer[914] 	lookupTimeSig:mean 	3.5333333333333
scalar Network.dyn_peer[914] 	lookupStabilitySig:mean 	0.53857236231367
scalar Network.dyn_peer[914] 	lookupHopsSig:mean 	34.666666666667
scalar Network.dyn_peer[915] 	lookupTimeSig:mean 	1.0833333333333
scalar Network.dyn_peer[915] 	lookupStabilitySig:mean 	0.77828663898011
scalar Network.dyn_peer[915] 	lookupHopsSig:mean 	10
scalar Network.dyn_peer[916] 	lookupTimeSig:mean 	2.1714285714286
scalar Network.dyn_peer[916] 	lookupStabilitySig:mean 	0.8931933258261
scalar Network.dyn_peer[916] 	lookupHopsSig:mean 	20.857142857143
scalar Network.dyn_peer[917] 	lookupTimeSig:mean 	1.5
scalar Network.dyn_peer[917] 	lookupStabilitySig:mean 	0.46054887026548
scalar Network.dyn_peer[917] 	lookupHopsSig:mean 	14.5
scalar Network.dyn_peer[918] 	lookupTimeSig:mean 	2.2142857142857
scalar Network.dyn_peer[918] 	lookupStabilitySig:mean 	0.94511803958033
scalar Network.dyn_peer[918] 	lookupHopsSig:mean 	21.285714285714
scalar Network.dyn_peer[919] 	lookupTimeSig:mean 	1.58
scalar Network.dyn_peer[919] 	lookupStabilitySig:mean 	0.92261564709867
scalar Network.dyn_peer[919] 	lookupHopsSig:mean 	14.866666666667
scalar Network.dyn_peer[920] 	lookupTimeSig:mean 	2.5666666666667
scalar Network.dyn_peer[920] 	lookupStabilitySig:mean 	0.8645160086453
scalar Network.dyn_peer[920] 	lookupHopsSig:mean 	25
scalar Network.dyn_peer[921] 	lookupTimeSig:mean 	1.46
scalar Network.dyn_peer[921] 	lookupStabilitySig:mean 	0.64043142795563
scalar Network.dyn_peer[921] 	lookupHopsSig:mean 	13.8
scalar Network.dyn_peer[922] 	lookupTimeSig:mean 	1.8285714285714
scalar Network.dyn_peer[922] 	lookupStabilitySig:mean 	0.95594572568578
scalar Network.dyn_peer[922] 	lookupHopsSig:mean 	17.428571428571
scalar Network.dyn_peer[923] 	lookupTimeSig:mean 	2.6666666666667
scalar Network.dyn_peer[923] 	lookupStabilitySig:mean 	0.92716627893969
scalar Network.dyn_peer[923] 	lookupHopsSig:mean 	25.833333333333
scalar Network.dyn_peer[924] 	lookupTimeSig:mean 	2.575
scalar Network.dyn_peer[924] 	lookupStabilitySig:mean 	0.80860241793562
scalar Network.dyn_peer[924] 	lookupHopsSig:mean 	25
scalar Network.dyn_peer[925] 	lookupTimeSig:mean 	2.2888888888889
scalar Network.dyn_peer[925] 	lookupStabilitySig:mean 	0.95709774870839
scalar Network.dyn_peer[925] 	lookupHopsSig:mean 	22
scalar Network.dyn_peer[926] 	lookupTimeSig:mean 	2.0333333333333
scalar Network.dyn_peer[926] 	lookupStabilitySig:mean 	0.49695752064387
scalar Network.dyn_peer[926] 	lookupHopsSig:mean 	19.666666666667
scalar Network.dyn_peer[927] 	lookupTimeSig:mean 	2.5875
scalar Network.dyn_peer[927] 	lookupStabilitySig:mean 	0.94374517700635
scalar Network.dyn_peer[927] 	lookupHopsSig:mean 	25
scalar Network.dyn_peer[928] 	lookupTimeSig:mean 	1.4833333333333
scalar Network.dyn_peer[928] 	lookupStabilitySig:mean 	0.90442179337454
scalar Network.dyn_peer[928] 	lookupHopsSig:mean 	14
scalar Network.dyn_peer[929] 	lookupTimeSig:mean 	2.475
scalar Network.dyn_peer[929] 	lookupStabilitySig:mean 	0.62323580216616
scalar Network.dyn_peer[929] 	lookupHopsSig:mean 	24
scalar Network.dyn_peer[930] 	lookupTimeSig:mean 	1.9857142857143
scalar Network.dyn_peer[930] 	lookupStabilitySig:mean 	0.88569024258426
scalar Network.dyn_peer[930] 	lookupHopsSig:mean 	19
scalar Network.dyn_peer[931] 	lookupTimeSig:mean 	1.9727272727273
scalar Network.dyn_peer[931] 	lookupStabilitySig:mean 	0.91268205431036
scalar Network.dyn_peer[931] 	lookupHopsSig:mean 	18.818181818182
scalar Network.dyn_peer[932] 	lookupTimeSig:mean 	1.16
scalar Network.dyn_peer[932] 	lookupStabilitySig:mean 	0.89473681598902
scalar Network.dyn_peer[932] 	lookupHopsSig:mean 	10.8
scalar Network.dyn_peer[933] 	lookupTimeSig:mean 	1.9090909090909
scalar Network.dyn_peer[933] 	lookupStabilitySig:mean 	0.91043577161194
scalar Network.dyn_peer[933] 	lookupHopsSig:mean 	18.181818181818
scalar Network.dyn_peer[934] 	lookupTimeSig:mean 	1.33
scalar Network.dyn_peer[934] 	lookupStabilitySig:mean 	0.90943761654198
scalar Network.dyn_peer[934] 	lookupHopsSig:mean 	12.4
scalar Network.dyn_peer[935] 	lookupTimeSig:mean 	1.8666666666667
scalar Network.dyn_peer[935] 	lookupStabilitySig:mean 	0.58323280513287
scalar Network.dyn_peer[935] 	lookupHopsSig:mean 	18
scalar Network.dyn_peer[936] 	lookupTimeSig:mean 	2.6
scalar Network.dyn_peer[936] 	lookupStabilitySig:mean 	0.79203040059656
scalar Network.dyn_peer[936] 	lookupHopsSig:mean 	25.25
scalar Network.dyn_peer[937] 	lookupTimeSig:mean 	3.075
scalar Network.dyn_peer[937] 	lookupStabilitySig:mean 	0.92469912837259
scalar Network.dyn_peer[937] 	lookupHopsSig:mean 	30
scalar Network.dyn_peer[938] 	lookupTimeSig:mean 	3.1333333333333
scalar Network.dyn_peer[938] 	lookupStabilitySig:mean 	0.737568680197
scalar Network.dyn_peer[938] 	lookupHopsSig:mean 	30.666666666667
scalar Network.dyn_peer[939] 	lookupTimeSig:mean 	2.14
scalar Network.dyn_peer[939] 	lookupStabilitySig:mean 	0.9387361573521
scalar Network.dyn_peer[939] 	lookupHopsSig:mean 	20.5
scalar Network.dyn_peer[940] 	lookupTimeSig:mean 	1.16
scalar Network.dyn_peer[940] 	lookupStabilitySig:mean 	0.91328249434009
scalar Network.dyn_peer[940] 	lookupHopsSig:mean 	10.7
scalar Network.dyn_peer[941] 	lookupTimeSig:mean 	1.6666666666667
scalar Network.dyn_peer[941] 	lookupStabilitySig:mean 	0.73762142658234
scalar Network.dyn_peer[941] 	lookupHopsSig:mean 	16
scalar Network.dyn_peer[942] 	lookupTimeSig:mean 	2.325
scalar Network.dyn_peer[942] 	lookupStabilitySig:mean 	0.62883490836248
scalar Network.dyn_peer[942] 	lookupHopsSig:mean 	22.5
scalar Network.dyn_peer[943] 	lookupTimeSig:mean 	1.8111111111111
scalar Network.dyn_peer[943] 	lookupStabilitySig:mean 	0.81254460828172
scalar Network.dyn_peer[943] 	lookupHopsSig:mean 	17.222222222222
scalar Network.dyn_peer[944] 	lookupTimeSig:mean 	2.5714285714286
scalar Network.dyn_peer[944] 	lookupStabilitySig:mean 	0.90968398390604
scalar Network.dyn_peer[944] 	lookupHopsSig:mean 	24.857142857143
scalar Network.dyn_peer[945] 	lookupTimeSig:mean 	1.5230769230769
scalar Network.dyn_peer[945] 	lookupStabilitySig:mean 	0.93262258078903
scalar Network.dyn_peer[945] 	lookupHopsSig:mean 	14.307692307692
scalar Network.dyn_peer[946] 	lookupTimeSig:mean 	1.6
scalar Network.dyn_peer[946] 	lookupStabilitySig:mean 	0.95816541729229
scalar Network.dyn_peer[946] 	lookupHopsSig:mean 	15.142857142857
scalar Network.dyn_peer[947] 	lookupTimeSig:mean 	1.64
scalar Network.dyn_peer[947] 	lookupStabilitySig:mean 	0.82191895395517
scalar Network.dyn_peer[947] 	lookupHopsSig:mean 	15.6
scalar Network.dyn_peer[948] 	lookupTimeSig:mean 	2.5
scalar Network.dyn_peer[948] 	lookupStabilitySig:mean 	0.7718116218845
scalar Network.dyn_peer[948] 	lookupHopsSig:mean 	24.333333333333
scalar Network.dyn_peer[949] 	lookupTimeSig:mean 	2.6
scalar Network.dyn_peer[949] 	lookupStabilitySig:mean 	0.92562542995438
scalar Network.dyn_peer[949] 	lookupHopsSig:mean 	25.25
scalar Network.dyn_peer[950] 	lookupTimeSig:mean 	2.82
scalar Network.dyn_peer[950] 	lookupStabilitySig:mean 	0.91615441422909
scalar Network.dyn_peer[950] 	lookupHopsSig:mean 	27.4
scalar Network.dyn_peer[951] 	lookupTimeSig:mean 	2.7666666666667
scalar Network.dyn_peer[951] 	lookupStabilitySig:mean 	0.57818062106768
scalar Network.dyn_peer[951] 	lookupHopsSig:mean 	27
scalar Network.dyn_peer[952] 	lookupTimeSig:mean 	2.7333333333333
scalar Network.dyn_peer[952] 	lookupStabilitySig:mean 	0.92392003023997
scalar Network.dyn_peer[952] 	lookupHopsSig:mean 	26.5
scalar Network.dyn_peer[953] 	lookupTimeSig:mean 	1.7
scalar Network.dyn_peer[953] 	lookupStabilitySig:mean 	0.65037712454796
scalar Network.dyn_peer[953] 	lookupHopsSig:mean 	16.5
scalar Network.dyn_peer[954] 	lookupTimeSig:mean 	3.26
scalar Network.dyn_peer[954] 	lookupStabilitySig:mean 	0.8556706123054
scalar Network.dyn_peer[954] 	lookupHopsSig:mean 	31.8
scalar Network.dyn_peer[955] 	lookupTimeSig:mean 	2.32
scalar Network.dyn_peer[955] 	lookupStabilitySig:mean 	0.89162750579417
scalar Network.dyn_peer[955] 	lookupHopsSig:mean 	22.4
scalar Network.dyn_peer[956] 	lookupTimeSig:mean 	2.1125
scalar Network.dyn_peer[956] 	lookupStabilitySig:mean 	0.9562121903291
scalar Network.dyn_peer[956] 	lookupHopsSig:mean 	20.25
scalar Network.dyn_peer[957] 	lookupTimeSig:mean 	1.475
scalar Network.dyn_peer[957] 	lookupStabilitySig:mean 	0.83213923964649
scalar Network.dyn_peer[957] 	lookupHopsSig:mean 	14
scalar Network.dyn_peer[958] 	lookupTimeSig:mean 	2.8666666666667
scalar Network.dyn_peer[958] 	lookupStabilitySig:mean 	0.94939963861058
scalar Network.dyn_peer[958] 	lookupHopsSig:mean 	27.833333333333
scalar Network.dyn_peer[959] 	lookupTimeSig:mean 	1.7
scalar Network.dyn_peer[959] 	lookupStabilitySig:mean 	0.93307326428799
scalar Network.dyn_peer[959] 	lookupHopsSig:mean 	16.111111111111
scalar Network.dyn_peer[960] 	lookupTimeSig:mean 	1.62
scalar Network.dyn_peer[960] 	lookupStabilitySig:mean 	0.67594752013683
scalar Network.dyn_peer[960] 	lookupHopsSig:mean 	15.4
scalar Network.dyn_peer[961] 	lookupTimeSig:mean 	1.4285714285714
scalar Network.dyn_peer[961] 	lookupStabilitySig:mean 	0.90179279892306
scalar Network.dyn_peer[961] 	lookupHopsSig:mean 	13.428571428571
scalar Network.dyn_peer[962] 	lookupTimeSig:mean 	1.95
scalar Network.dyn_peer[962] 	lookupStabilitySig:mean 	0.71408012323081
scalar Network.dyn_peer[962] 	lookupHopsSig:mean 	18.75
scalar Network.dyn_peer[963] 	lookupTimeSig:mean 	2.9333333333333
scalar Network.dyn_peer[963] 	lookupStabilitySig:mean 	0.92199771323552
scalar Network.dyn_peer[963] 	lookupHopsSig:mean 	28.5
scalar Network.dyn_peer[964] 	lookupTimeSig:mean 	1.65
scalar Network.dyn_peer[964] 	lookupStabilitySig:mean 	0.89237835013773
scalar Network.dyn_peer[964] 	lookupHopsSig:mean 	15.625
scalar Network.dyn_peer[965] 	lookupTimeSig:mean 	4.0333333333333
scalar Network.dyn_peer[965] 	lookupStabilitySig:mean 	0.87548557420572
scalar Network.dyn_peer[965] 	lookupHopsSig:mean 	39.666666666667
scalar Network.dyn_peer[966] 	lookupTimeSig:mean 	2.4
scalar Network.dyn_peer[966] 	lookupStabilitySig:mean 	0.80408996948972
scalar Network.dyn_peer[966] 	lookupHopsSig:mean 	23.25
scalar Network.dyn_peer[967] 	lookupTimeSig:mean 	2.8
scalar Network.dyn_peer[967] 	lookupStabilitySig:mean 	0.95865355372163
scalar Network.dyn_peer[967] 	lookupHopsSig:mean 	27.142857142857
scalar Network.dyn_peer[968] 	lookupTimeSig:mean 	3.75
scalar Network.dyn_peer[968] 	lookupStabilitySig:mean 	0.91494081169367
scalar Network.dyn_peer[968] 	lookupHopsSig:mean 	36.75
scalar Network.dyn_peer[969] 	lookupTimeSig:mean 	2.62
scalar Network.dyn_peer[969] 	lookupStabilitySig:mean 	0.92618023306131
scalar Network.dyn_peer[969] 	lookupHopsSig:mean 	25.4
scalar Network.dyn_peer[970] 	lookupTimeSig:mean 	1.45
scalar Network.dyn_peer[970] 	lookupStabilitySig:mean 	0.62507451325655
scalar Network.dyn_peer[970] 	lookupHopsSig:mean 	13.75
scalar Network.dyn_peer[971] 	lookupTimeSig:mean 	1.1166666666667
scalar Network.dyn_peer[971] 	lookupStabilitySig:mean 	0.86667990187804
scalar Network.dyn_peer[971] 	lookupHopsSig:mean 	10.333333333333
scalar Network.dyn_peer[972] 	lookupTimeSig:mean 	1.275
scalar Network.dyn_peer[972] 	lookupStabilitySig:mean 	0.83661182131618
scalar Network.dyn_peer[972] 	lookupHopsSig:mean 	11.833333333333
scalar Network.dyn_peer[973] 	lookupTimeSig:mean 	2.35
scalar Network.dyn_peer[973] 	lookupStabilitySig:mean 	0.593666004017
scalar Network.dyn_peer[973] 	lookupHopsSig:mean 	22.75
scalar Network.dyn_peer[974] 	lookupTimeSig:mean 	2.55
scalar Network.dyn_peer[974] 	lookupStabilitySig:mean 	0.81861447263509
scalar Network.dyn_peer[974] 	lookupHopsSig:mean 	24.75
scalar Network.dyn_peer[975] 	lookupTimeSig:mean 	1.98
scalar Network.dyn_peer[975] 	lookupStabilitySig:mean 	0.96431054417044
scalar Network.dyn_peer[975] 	lookupHopsSig:mean 	18.9
scalar Network.dyn_peer[976] 	lookupTimeSig:mean 	2.24
scalar Network.dyn_peer[976] 	lookupStabilitySig:mean 	0.94191425968893
scalar Network.dyn_peer[976] 	lookupHopsSig:mean 	21.6
scalar Network.dyn_peer[977] 	lookupTimeSig:mean 	2.66
scalar Network.dyn_peer[977] 	lookupStabilitySig:mean 	0.68982395231724
scalar Network.dyn_peer[977] 	lookupHopsSig:mean 	25.8
scalar Network.dyn_peer[978] 	lookupTimeSig:mean 	2.5
scalar Network.dyn_peer[978] 	lookupStabilitySig:mean 	0.78762886300683
scalar Network.dyn_peer[978] 	lookupHopsSig:mean 	24.333333333333
scalar Network.dyn_peer[979] 	lookupTimeSig:mean 	3.075
scalar Network.dyn_peer[979] 	lookupStabilitySig:mean 	0.72169072180986
scalar Network.dyn_peer[979] 	lookupHopsSig:mean 	30
scalar Network.dyn_peer[980] 	lookupTimeSig:mean 	1.25
scalar Network.dyn_peer[980] 	lookupStabilitySig:mean 	0.71988047768051
scalar Network.dyn_peer[980] 	lookupHopsSig:mean 	11.666666666667
scalar Network.dyn_peer[981] 	lookupTimeSig:mean 	1.3
scalar Network.dyn_peer[981] 	lookupStabilitySig:mean 	0.60187171958387
scalar Network.dyn_peer[981] 	lookupHopsSig:mean 	12.25
scalar Network.dyn_peer[982] 	lookupTimeSig:mean 	1.45
scalar Network.dyn_peer[982] 	lookupStabilitySig:mean 	0.95774937182432
scalar Network.dyn_peer[982] 	lookupHopsSig:mean 	13.625
scalar Network.dyn_peer[983] 	lookupTimeSig:mean 	2.35
scalar Network.dyn_peer[983] 	lookupStabilitySig:mean 	0.83938966109417
scalar Network.dyn_peer[983] 	lookupHopsSig:mean 	22.75
scalar Network.dyn_peer[984] 	lookupTimeSig:mean 	2.22
scalar Network.dyn_peer[984] 	lookupStabilitySig:mean 	0.85811926200986
scalar Network.dyn_peer[984] 	lookupHopsSig:mean 	21.4
scalar Network.dyn_peer[985] 	lookupTimeSig:mean 	2.9333333333333
scalar Network.dyn_peer[985] 	lookupStabilitySig:mean 	0.83790654440721
scalar Network.dyn_peer[985] 	lookupHopsSig:mean 	28.666666666667
scalar Network.dyn_peer[986] 	lookupTimeSig:mean 	1.6666666666667
scalar Network.dyn_peer[986] 	lookupStabilitySig:mean 	0.62341503798962
scalar Network.dyn_peer[986] 	lookupHopsSig:mean 	16
scalar Network.dyn_peer[987] 	lookupTimeSig:mean 	1.7666666666667
scalar Network.dyn_peer[987] 	lookupStabilitySig:mean 	0.61905032893022
scalar Network.dyn_peer[987] 	lookupHopsSig:mean 	17
scalar Network.dyn_peer[988] 	lookupTimeSig:mean 	3.475
scalar Network.dyn_peer[988] 	lookupStabilitySig:mean 	0.93489526212215
scalar Network.dyn_peer[988] 	lookupHopsSig:mean 	34
scalar Network.dyn_peer[989] 	lookupTimeSig:mean 	1.6625
scalar Network.dyn_peer[989] 	lookupStabilitySig:mean 	0.83069683425128
scalar Network.dyn_peer[989] 	lookupHopsSig:mean 	15.75
scalar Network.dyn_peer[990] 	lookupTimeSig:mean 	1.1666666666667
scalar Network.dyn_peer[990] 	lookupStabilitySig:mean 	0.5213178123037
scalar Network.dyn_peer[990] 	lookupHopsSig:mean 	11
scalar Network.dyn_peer[991] 	lookupTimeSig:mean 	4.3
scalar Network.dyn_peer[991] 	lookupStabilitySig:mean 	0.87312052771449
scalar Network.dyn_peer[991] 	lookupHopsSig:mean 	42.333333333333
scalar Network.dyn_peer[992] 	lookupTimeSig:mean 	1.1285714285714
scalar Network.dyn_peer[992] 	lookupStabilitySig:mean 	0.80163115715342
scalar Network.dyn_peer[992] 	lookupHopsSig:mean 	10.428571428571
scalar Network.dyn_peer[993] 	lookupTimeSig:mean 	1.4166666666667
scalar Network.dyn_peer[993] 	lookupStabilitySig:mean 	0.68019363780816
scalar Network.dyn_peer[993] 	lookupHopsSig:mean 	13.333333333333
scalar Network.dyn_peer[994] 	lookupTimeSig:mean 	1.45
scalar Network.dyn_peer[994] 	lookupStabilitySig:mean 	0.61134041845798
scalar Network.dyn_peer[994] 	lookupHopsSig:mean 	13.75
scalar Network.dyn_peer[995] 	lookupTimeSig:mean 	2.45
scalar Network.dyn_peer[995] 	lookupStabilitySig:mean 	0.63650956004858
scalar Network.dyn_peer[995] 	lookupHopsSig:mean 	23.75
scalar Network.dyn_peer[996] 	lookupTimeSig:mean 	1.7285714285714
scalar Network.dyn_peer[996] 	lookupStabilitySig:mean 	0.93299193201321
scalar Network.dyn_peer[996] 	lookupHopsSig:mean 	16.428571428571
scalar Network.dyn_peer[997] 	lookupTimeSig:mean 	1.4
scalar Network.dyn_peer[997] 	lookupStabilitySig:mean 	0.67217065952718
scalar Network.dyn_peer[997] 	lookupHopsSig:mean 	13.25
scalar Network.dyn_peer[998] 	lookupTimeSig:mean 	1.1
scalar Network.dyn_peer[998] 	lookupStabilitySig:mean 	0.34523806720972
scalar Network.dyn_peer[998] 	lookupHopsSig:mean 	10.5
scalar Network.dyn_peer[999] 	lookupTimeSig:mean 	1.6846153846154
scalar Network.dyn_peer[999] 	lookupStabilitySig:mean 	0.93625229289039
scalar Network.dyn_peer[999] 	lookupHopsSig:mean 	15.923076923077
scalar Network.churner 	inGoingSizeSig:mean 	499.000999001
