version 2
run Stability2-286-20130526-00:53:57-26640
attr configname Stability2
attr datetime 20130526-00:53:57
attr experiment Stability2
attr inifile omnetpp.ini
attr iterationvars $0=500
attr iterationvars2 "$0=500, $repetition=16"
attr measurement $0=500
attr network Network
attr processid 26640
attr repetition 16
attr replication #16
attr resultdir results
attr runnumber 286
attr seedset 286

scalar Network.dyn_peer[0] 	lookupTimeSig:mean 	1.675
scalar Network.dyn_peer[0] 	lookupStabilitySig:mean 	0.43749058060348
scalar Network.dyn_peer[0] 	lookupHopsSig:mean 	16
scalar Network.dyn_peer[1] 	lookupTimeSig:mean 	1.8
scalar Network.dyn_peer[1] 	lookupStabilitySig:mean 	0.26623091101646
scalar Network.dyn_peer[1] 	lookupHopsSig:mean 	17.333333333333
scalar Network.dyn_peer[2] 	lookupTimeSig:mean 	1.52
scalar Network.dyn_peer[2] 	lookupStabilitySig:mean 	0.63805242776871
scalar Network.dyn_peer[2] 	lookupHopsSig:mean 	14.4
scalar Network.dyn_peer[3] 	lookupTimeSig:mean 	1.34
scalar Network.dyn_peer[3] 	lookupStabilitySig:mean 	0.4965051330626
scalar Network.dyn_peer[3] 	lookupHopsSig:mean 	12.6
scalar Network.dyn_peer[4] 	lookupTimeSig:mean 	1.3857142857143
scalar Network.dyn_peer[4] 	lookupStabilitySig:mean 	0.62584866769612
scalar Network.dyn_peer[4] 	lookupHopsSig:mean 	13
scalar Network.dyn_peer[5] 	lookupTimeSig:mean 	1.38
scalar Network.dyn_peer[5] 	lookupStabilitySig:mean 	0.6330462127924
scalar Network.dyn_peer[5] 	lookupHopsSig:mean 	13
scalar Network.dyn_peer[6] 	lookupTimeSig:mean 	1.44
scalar Network.dyn_peer[6] 	lookupStabilitySig:mean 	0.64581008702517
scalar Network.dyn_peer[6] 	lookupHopsSig:mean 	13.6
scalar Network.dyn_peer[7] 	lookupTimeSig:mean 	1.14
scalar Network.dyn_peer[7] 	lookupStabilitySig:mean 	0.48982201144099
scalar Network.dyn_peer[7] 	lookupHopsSig:mean 	10.6
scalar Network.dyn_peer[8] 	lookupTimeSig:mean 	1.04
scalar Network.dyn_peer[8] 	lookupStabilitySig:mean 	0.50407035741955
scalar Network.dyn_peer[8] 	lookupHopsSig:mean 	9.6
scalar Network.dyn_peer[9] 	lookupTimeSig:mean 	1.875
scalar Network.dyn_peer[9] 	lookupStabilitySig:mean 	0.72059836052358
scalar Network.dyn_peer[9] 	lookupHopsSig:mean 	18
scalar Network.dyn_peer[10] 	lookupTimeSig:mean 	1.82
scalar Network.dyn_peer[10] 	lookupStabilitySig:mean 	0.54276037290692
scalar Network.dyn_peer[10] 	lookupHopsSig:mean 	17.4
scalar Network.dyn_peer[11] 	lookupTimeSig:mean 	1.7
scalar Network.dyn_peer[11] 	lookupStabilitySig:mean 	0.39278784953058
scalar Network.dyn_peer[11] 	lookupHopsSig:mean 	16.25
scalar Network.dyn_peer[12] 	lookupTimeSig:mean 	2.05
scalar Network.dyn_peer[12] 	lookupStabilitySig:mean 	0.1228069961071
scalar Network.dyn_peer[12] 	lookupHopsSig:mean 	20
scalar Network.dyn_peer[13] 	lookupTimeSig:mean 	1.7333333333333
scalar Network.dyn_peer[13] 	lookupStabilitySig:mean 	0.61553520212571
scalar Network.dyn_peer[13] 	lookupHopsSig:mean 	16.666666666667
scalar Network.dyn_peer[14] 	lookupTimeSig:mean 	1.4666666666667
scalar Network.dyn_peer[14] 	lookupStabilitySig:mean 	0.69360099049906
scalar Network.dyn_peer[14] 	lookupHopsSig:mean 	13.777777777778
scalar Network.dyn_peer[15] 	lookupTimeSig:mean 	1.62
scalar Network.dyn_peer[15] 	lookupStabilitySig:mean 	0.58237207680941
scalar Network.dyn_peer[15] 	lookupHopsSig:mean 	15.4
scalar Network.dyn_peer[16] 	lookupTimeSig:mean 	1.3
scalar Network.dyn_peer[16] 	lookupStabilitySig:mean 	0.71155530235006
scalar Network.dyn_peer[16] 	lookupHopsSig:mean 	12.111111111111
scalar Network.dyn_peer[17] 	lookupTimeSig:mean 	1
scalar Network.dyn_peer[17] 	lookupStabilitySig:mean 	0.11915535231431
scalar Network.dyn_peer[17] 	lookupHopsSig:mean 	9.3333333333333
scalar Network.dyn_peer[18] 	lookupTimeSig:mean 	2
scalar Network.dyn_peer[18] 	lookupStabilitySig:mean 	0.47101449221373
scalar Network.dyn_peer[18] 	lookupHopsSig:mean 	19.333333333333
scalar Network.dyn_peer[19] 	lookupTimeSig:mean 	1.29
scalar Network.dyn_peer[19] 	lookupStabilitySig:mean 	0.7154740056023
scalar Network.dyn_peer[19] 	lookupHopsSig:mean 	12
scalar Network.dyn_peer[20] 	lookupTimeSig:mean 	1.4166666666667
scalar Network.dyn_peer[20] 	lookupStabilitySig:mean 	0.76931046042591
scalar Network.dyn_peer[20] 	lookupHopsSig:mean 	13.333333333333
scalar Network.dyn_peer[21] 	lookupTimeSig:mean 	0.97
scalar Network.dyn_peer[21] 	lookupStabilitySig:mean 	0.76790680084378
scalar Network.dyn_peer[21] 	lookupHopsSig:mean 	8.8
scalar Network.dyn_peer[22] 	lookupTimeSig:mean 	1.1666666666667
scalar Network.dyn_peer[22] 	lookupStabilitySig:mean 	0.21169592936834
scalar Network.dyn_peer[22] 	lookupHopsSig:mean 	11
scalar Network.dyn_peer[23] 	lookupTimeSig:mean 	1.6
scalar Network.dyn_peer[23] 	lookupStabilitySig:mean 	0.47619047264258
scalar Network.dyn_peer[23] 	lookupHopsSig:mean 	15.333333333333
scalar Network.dyn_peer[24] 	lookupTimeSig:mean 	1.2166666666667
scalar Network.dyn_peer[24] 	lookupStabilitySig:mean 	0.76965120434761
scalar Network.dyn_peer[24] 	lookupHopsSig:mean 	11.333333333333
scalar Network.dyn_peer[25] 	lookupTimeSig:mean 	1.725
scalar Network.dyn_peer[25] 	lookupStabilitySig:mean 	0.59732572361827
scalar Network.dyn_peer[25] 	lookupHopsSig:mean 	16.5
scalar Network.dyn_peer[26] 	lookupTimeSig:mean 	1.56
scalar Network.dyn_peer[26] 	lookupStabilitySig:mean 	0.60883075147867
scalar Network.dyn_peer[26] 	lookupHopsSig:mean 	14.8
scalar Network.dyn_peer[27] 	lookupTimeSig:mean 	1.7333333333333
scalar Network.dyn_peer[27] 	lookupStabilitySig:mean 	0.78845309714476
scalar Network.dyn_peer[27] 	lookupHopsSig:mean 	16.666666666667
scalar Network.dyn_peer[28] 	lookupTimeSig:mean 	0.9875
scalar Network.dyn_peer[28] 	lookupStabilitySig:mean 	0.73382126400247
scalar Network.dyn_peer[28] 	lookupHopsSig:mean 	9
scalar Network.dyn_peer[29] 	lookupTimeSig:mean 	1.48
scalar Network.dyn_peer[29] 	lookupStabilitySig:mean 	0.7694638453424
scalar Network.dyn_peer[29] 	lookupHopsSig:mean 	14
scalar Network.dyn_peer[30] 	lookupTimeSig:mean 	1.65
scalar Network.dyn_peer[30] 	lookupStabilitySig:mean 	0.58826389163733
scalar Network.dyn_peer[30] 	lookupHopsSig:mean 	15.75
scalar Network.dyn_peer[31] 	lookupTimeSig:mean 	2.3166666666667
scalar Network.dyn_peer[31] 	lookupStabilitySig:mean 	0.85750844484816
scalar Network.dyn_peer[31] 	lookupHopsSig:mean 	22.333333333333
scalar Network.dyn_peer[32] 	lookupTimeSig:mean 	1.15
scalar Network.dyn_peer[32] 	lookupStabilitySig:mean 	0.42956615891308
scalar Network.dyn_peer[32] 	lookupHopsSig:mean 	10.75
scalar Network.dyn_peer[33] 	lookupTimeSig:mean 	1.4
scalar Network.dyn_peer[33] 	lookupStabilitySig:mean 	0.53174604723851
scalar Network.dyn_peer[33] 	lookupHopsSig:mean 	13.333333333333
scalar Network.dyn_peer[34] 	lookupTimeSig:mean 	0.625
scalar Network.dyn_peer[34] 	lookupStabilitySig:mean 	0.44358973577619
scalar Network.dyn_peer[34] 	lookupHopsSig:mean 	5.5
scalar Network.dyn_peer[35] 	lookupTimeSig:mean 	1.075
scalar Network.dyn_peer[35] 	lookupStabilitySig:mean 	0.38691814616323
scalar Network.dyn_peer[35] 	lookupHopsSig:mean 	10
scalar Network.dyn_peer[36] 	lookupTimeSig:mean 	1.3
scalar Network.dyn_peer[36] 	lookupStabilitySig:mean 	0.46264367178082
scalar Network.dyn_peer[36] 	lookupHopsSig:mean 	12.25
scalar Network.dyn_peer[37] 	lookupTimeSig:mean 	1.18
scalar Network.dyn_peer[37] 	lookupStabilitySig:mean 	0.64953569322824
scalar Network.dyn_peer[37] 	lookupHopsSig:mean 	11
scalar Network.dyn_peer[38] 	lookupTimeSig:mean 	1.7333333333333
scalar Network.dyn_peer[38] 	lookupStabilitySig:mean 	0.69964192683498
scalar Network.dyn_peer[38] 	lookupHopsSig:mean 	16.666666666667
scalar Network.dyn_peer[39] 	lookupTimeSig:mean 	1.68
scalar Network.dyn_peer[39] 	lookupStabilitySig:mean 	0.73742692954838
scalar Network.dyn_peer[39] 	lookupHopsSig:mean 	16
scalar Network.dyn_peer[40] 	lookupTimeSig:mean 	1.62
scalar Network.dyn_peer[40] 	lookupStabilitySig:mean 	0.5743534989655
scalar Network.dyn_peer[40] 	lookupHopsSig:mean 	15.4
scalar Network.dyn_peer[41] 	lookupTimeSig:mean 	2.85
scalar Network.dyn_peer[41] 	lookupStabilitySig:mean 	-0.12280701845884
scalar Network.dyn_peer[41] 	lookupHopsSig:mean 	28
scalar Network.dyn_peer[42] 	lookupTimeSig:mean 	1.0666666666667
scalar Network.dyn_peer[42] 	lookupStabilitySig:mean 	0.86304133737253
scalar Network.dyn_peer[42] 	lookupHopsSig:mean 	9.7777777777778
scalar Network.dyn_peer[43] 	lookupTimeSig:mean 	1.3
scalar Network.dyn_peer[43] 	lookupStabilitySig:mean 	0.46881155855954
scalar Network.dyn_peer[43] 	lookupHopsSig:mean 	12.25
scalar Network.dyn_peer[44] 	lookupTimeSig:mean 	0.98571428571429
scalar Network.dyn_peer[44] 	lookupStabilitySig:mean 	0.75492317841521
scalar Network.dyn_peer[44] 	lookupHopsSig:mean 	9
scalar Network.dyn_peer[45] 	lookupTimeSig:mean 	1.7666666666667
scalar Network.dyn_peer[45] 	lookupStabilitySig:mean 	0.65712593495846
scalar Network.dyn_peer[45] 	lookupHopsSig:mean 	17
scalar Network.dyn_peer[46] 	lookupTimeSig:mean 	1.95
scalar Network.dyn_peer[46] 	lookupStabilitySig:mean 	0.42637363821268
scalar Network.dyn_peer[46] 	lookupHopsSig:mean 	19
scalar Network.dyn_peer[47] 	lookupTimeSig:mean 	0.98
scalar Network.dyn_peer[47] 	lookupStabilitySig:mean 	0.54726083278656
scalar Network.dyn_peer[47] 	lookupHopsSig:mean 	9
scalar Network.dyn_peer[48] 	lookupTimeSig:mean 	2.175
scalar Network.dyn_peer[48] 	lookupStabilitySig:mean 	0.67103174468502
scalar Network.dyn_peer[48] 	lookupHopsSig:mean 	21
scalar Network.dyn_peer[49] 	lookupTimeSig:mean 	1.5333333333333
scalar Network.dyn_peer[49] 	lookupStabilitySig:mean 	0.42073311905066
scalar Network.dyn_peer[49] 	lookupHopsSig:mean 	14.666666666667
scalar Network.dyn_peer[50] 	lookupTimeSig:mean 	1.55
scalar Network.dyn_peer[50] 	lookupStabilitySig:mean 	0.89646812975407
scalar Network.dyn_peer[50] 	lookupHopsSig:mean 	14.6
scalar Network.dyn_peer[51] 	lookupTimeSig:mean 	1.5285714285714
scalar Network.dyn_peer[51] 	lookupStabilitySig:mean 	0.74270529725722
scalar Network.dyn_peer[51] 	lookupHopsSig:mean 	14.428571428571
scalar Network.dyn_peer[52] 	lookupTimeSig:mean 	1.4333333333333
scalar Network.dyn_peer[52] 	lookupStabilitySig:mean 	0.72462828115871
scalar Network.dyn_peer[52] 	lookupHopsSig:mean 	13.5
scalar Network.dyn_peer[53] 	lookupTimeSig:mean 	2.2666666666667
scalar Network.dyn_peer[53] 	lookupStabilitySig:mean 	0.72631691892942
scalar Network.dyn_peer[53] 	lookupHopsSig:mean 	22
scalar Network.dyn_peer[54] 	lookupTimeSig:mean 	1.8333333333333
scalar Network.dyn_peer[54] 	lookupStabilitySig:mean 	0.46731160581112
scalar Network.dyn_peer[54] 	lookupHopsSig:mean 	17.666666666667
scalar Network.dyn_peer[55] 	lookupTimeSig:mean 	2.2
scalar Network.dyn_peer[55] 	lookupStabilitySig:mean 	0.56070564438899
scalar Network.dyn_peer[55] 	lookupHopsSig:mean 	21.333333333333
scalar Network.dyn_peer[56] 	lookupTimeSig:mean 	1.8
scalar Network.dyn_peer[56] 	lookupStabilitySig:mean 	0.55572413280606
scalar Network.dyn_peer[56] 	lookupHopsSig:mean 	17.25
scalar Network.dyn_peer[57] 	lookupTimeSig:mean 	1.0833333333333
scalar Network.dyn_peer[57] 	lookupStabilitySig:mean 	0.81451461953111
scalar Network.dyn_peer[57] 	lookupHopsSig:mean 	9.9166666666667
scalar Network.dyn_peer[58] 	lookupTimeSig:mean 	1.5
scalar Network.dyn_peer[58] 	lookupStabilitySig:mean 	0.634026376158
scalar Network.dyn_peer[58] 	lookupHopsSig:mean 	14.2
scalar Network.dyn_peer[59] 	lookupTimeSig:mean 	0.56666666666667
scalar Network.dyn_peer[59] 	lookupStabilitySig:mean 	0.34772726893425
scalar Network.dyn_peer[59] 	lookupHopsSig:mean 	5
scalar Network.dyn_peer[60] 	lookupTimeSig:mean 	0.85
scalar Network.dyn_peer[60] 	lookupStabilitySig:mean 	0.66051235515624
scalar Network.dyn_peer[60] 	lookupHopsSig:mean 	7.75
scalar Network.dyn_peer[61] 	lookupTimeSig:mean 	1.55
scalar Network.dyn_peer[61] 	lookupStabilitySig:mean 	0.69449318068412
scalar Network.dyn_peer[61] 	lookupHopsSig:mean 	14.666666666667
scalar Network.dyn_peer[62] 	lookupTimeSig:mean 	0.95714285714286
scalar Network.dyn_peer[62] 	lookupStabilitySig:mean 	0.66491001445268
scalar Network.dyn_peer[62] 	lookupHopsSig:mean 	8.7142857142857
scalar Network.dyn_peer[63] 	lookupTimeSig:mean 	1.65
scalar Network.dyn_peer[63] 	lookupStabilitySig:mean 	0.60336907953024
scalar Network.dyn_peer[63] 	lookupHopsSig:mean 	15.75
scalar Network.dyn_peer[64] 	lookupTimeSig:mean 	0.96666666666667
scalar Network.dyn_peer[64] 	lookupStabilitySig:mean 	0.71691778674722
scalar Network.dyn_peer[64] 	lookupHopsSig:mean 	8.8333333333333
scalar Network.dyn_peer[65] 	lookupTimeSig:mean 	1.9285714285714
scalar Network.dyn_peer[65] 	lookupStabilitySig:mean 	0.91656476339059
scalar Network.dyn_peer[65] 	lookupHopsSig:mean 	18.428571428571
scalar Network.dyn_peer[66] 	lookupTimeSig:mean 	0.93
scalar Network.dyn_peer[66] 	lookupStabilitySig:mean 	0.91622903235257
scalar Network.dyn_peer[66] 	lookupHopsSig:mean 	8.4
scalar Network.dyn_peer[67] 	lookupTimeSig:mean 	1.025
scalar Network.dyn_peer[67] 	lookupStabilitySig:mean 	0.50886525772512
scalar Network.dyn_peer[67] 	lookupHopsSig:mean 	9.5
scalar Network.dyn_peer[68] 	lookupTimeSig:mean 	2.7
scalar Network.dyn_peer[68] 	lookupStabilitySig:mean 	0.10987260937691
scalar Network.dyn_peer[68] 	lookupHopsSig:mean 	26.5
scalar Network.dyn_peer[69] 	lookupTimeSig:mean 	1.4666666666667
scalar Network.dyn_peer[69] 	lookupStabilitySig:mean 	0.64108542725444
scalar Network.dyn_peer[69] 	lookupHopsSig:mean 	13.833333333333
scalar Network.dyn_peer[70] 	lookupTimeSig:mean 	0.9
scalar Network.dyn_peer[70] 	lookupStabilitySig:mean 	0.6913978420198
scalar Network.dyn_peer[70] 	lookupHopsSig:mean 	8.25
scalar Network.dyn_peer[71] 	lookupTimeSig:mean 	1.25
scalar Network.dyn_peer[71] 	lookupStabilitySig:mean 	0.54562228173018
scalar Network.dyn_peer[71] 	lookupHopsSig:mean 	11.75
scalar Network.dyn_peer[72] 	lookupTimeSig:mean 	1.2
scalar Network.dyn_peer[72] 	lookupStabilitySig:mean 	0.86726369056851
scalar Network.dyn_peer[72] 	lookupHopsSig:mean 	11.142857142857
scalar Network.dyn_peer[73] 	lookupTimeSig:mean 	1.2666666666667
scalar Network.dyn_peer[73] 	lookupStabilitySig:mean 	0.83586033650984
scalar Network.dyn_peer[73] 	lookupHopsSig:mean 	11.777777777778
scalar Network.dyn_peer[74] 	lookupTimeSig:mean 	1.575
scalar Network.dyn_peer[74] 	lookupStabilitySig:mean 	0.57423237152398
scalar Network.dyn_peer[74] 	lookupHopsSig:mean 	15
scalar Network.dyn_peer[75] 	lookupTimeSig:mean 	3.35
scalar Network.dyn_peer[75] 	lookupStabilitySig:mean 	0.57080566138029
scalar Network.dyn_peer[75] 	lookupHopsSig:mean 	33
scalar Network.dyn_peer[76] 	lookupTimeSig:mean 	1.2555555555556
scalar Network.dyn_peer[76] 	lookupStabilitySig:mean 	0.88546289519096
scalar Network.dyn_peer[76] 	lookupHopsSig:mean 	11.666666666667
scalar Network.dyn_peer[77] 	lookupTimeSig:mean 	1.4
scalar Network.dyn_peer[77] 	lookupStabilitySig:mean 	0.91187547224884
scalar Network.dyn_peer[77] 	lookupHopsSig:mean 	13.166666666667
scalar Network.dyn_peer[78] 	lookupTimeSig:mean 	1.4
scalar Network.dyn_peer[78] 	lookupStabilitySig:mean 	0.44054232537746
scalar Network.dyn_peer[78] 	lookupHopsSig:mean 	13.25
scalar Network.dyn_peer[79] 	lookupTimeSig:mean 	1.5714285714286
scalar Network.dyn_peer[79] 	lookupStabilitySig:mean 	0.8893056511879
scalar Network.dyn_peer[79] 	lookupHopsSig:mean 	14.857142857143
scalar Network.dyn_peer[80] 	lookupTimeSig:mean 	1.1111111111111
scalar Network.dyn_peer[80] 	lookupStabilitySig:mean 	0.87263655838453
scalar Network.dyn_peer[80] 	lookupHopsSig:mean 	10.222222222222
scalar Network.dyn_peer[81] 	lookupTimeSig:mean 	0.56666666666667
scalar Network.dyn_peer[81] 	lookupStabilitySig:mean 	0.57775167499979
scalar Network.dyn_peer[81] 	lookupHopsSig:mean 	4.8333333333333
scalar Network.dyn_peer[82] 	lookupTimeSig:mean 	1.3909090909091
scalar Network.dyn_peer[82] 	lookupStabilitySig:mean 	0.93645701049404
scalar Network.dyn_peer[82] 	lookupHopsSig:mean 	13
scalar Network.dyn_peer[83] 	lookupTimeSig:mean 	1.4875
scalar Network.dyn_peer[83] 	lookupStabilitySig:mean 	0.93952050601365
scalar Network.dyn_peer[83] 	lookupHopsSig:mean 	14
scalar Network.dyn_peer[84] 	lookupTimeSig:mean 	2.9333333333333
scalar Network.dyn_peer[84] 	lookupStabilitySig:mean 	0.83289402164519
scalar Network.dyn_peer[84] 	lookupHopsSig:mean 	28.666666666667
scalar Network.dyn_peer[85] 	lookupTimeSig:mean 	1.2875
scalar Network.dyn_peer[85] 	lookupStabilitySig:mean 	0.80645835539326
scalar Network.dyn_peer[85] 	lookupHopsSig:mean 	12
scalar Network.dyn_peer[86] 	lookupTimeSig:mean 	1.5181818181818
scalar Network.dyn_peer[86] 	lookupStabilitySig:mean 	0.94291646609252
scalar Network.dyn_peer[86] 	lookupHopsSig:mean 	14.272727272727
scalar Network.dyn_peer[87] 	lookupTimeSig:mean 	1.08
scalar Network.dyn_peer[87] 	lookupStabilitySig:mean 	0.57775157243013
scalar Network.dyn_peer[87] 	lookupHopsSig:mean 	10
scalar Network.dyn_peer[88] 	lookupTimeSig:mean 	0.65
scalar Network.dyn_peer[88] 	lookupStabilitySig:mean 	0.47241379506886
scalar Network.dyn_peer[88] 	lookupHopsSig:mean 	5.75
scalar Network.dyn_peer[89] 	lookupTimeSig:mean 	1.15
scalar Network.dyn_peer[89] 	lookupStabilitySig:mean 	0.93010499957018
scalar Network.dyn_peer[89] 	lookupHopsSig:mean 	10.583333333333
scalar Network.dyn_peer[90] 	lookupTimeSig:mean 	1.2142857142857
scalar Network.dyn_peer[90] 	lookupStabilitySig:mean 	0.69679649001254
scalar Network.dyn_peer[90] 	lookupHopsSig:mean 	11.285714285714
scalar Network.dyn_peer[91] 	lookupTimeSig:mean 	1.35
scalar Network.dyn_peer[91] 	lookupStabilitySig:mean 	0.77380018401891
scalar Network.dyn_peer[91] 	lookupHopsSig:mean 	12.75
scalar Network.dyn_peer[92] 	lookupTimeSig:mean 	1.9666666666667
scalar Network.dyn_peer[92] 	lookupStabilitySig:mean 	0.46029143532117
scalar Network.dyn_peer[92] 	lookupHopsSig:mean 	19
scalar Network.dyn_peer[93] 	lookupTimeSig:mean 	1.1777777777778
scalar Network.dyn_peer[93] 	lookupStabilitySig:mean 	0.83555746513108
scalar Network.dyn_peer[93] 	lookupHopsSig:mean 	10.888888888889
scalar Network.dyn_peer[94] 	lookupTimeSig:mean 	0.775
scalar Network.dyn_peer[94] 	lookupStabilitySig:mean 	0.5387492896989
scalar Network.dyn_peer[94] 	lookupHopsSig:mean 	7
scalar Network.dyn_peer[95] 	lookupTimeSig:mean 	1.175
scalar Network.dyn_peer[95] 	lookupStabilitySig:mean 	0.42480371519923
scalar Network.dyn_peer[95] 	lookupHopsSig:mean 	11
scalar Network.dyn_peer[96] 	lookupTimeSig:mean 	1.3
scalar Network.dyn_peer[96] 	lookupStabilitySig:mean 	0.51867012232542
scalar Network.dyn_peer[96] 	lookupHopsSig:mean 	12.2
scalar Network.dyn_peer[97] 	lookupTimeSig:mean 	0.76666666666667
scalar Network.dyn_peer[97] 	lookupStabilitySig:mean 	0.65827372359733
scalar Network.dyn_peer[97] 	lookupHopsSig:mean 	6.8333333333333
scalar Network.dyn_peer[98] 	lookupTimeSig:mean 	1.225
scalar Network.dyn_peer[98] 	lookupStabilitySig:mean 	0.58496799692512
scalar Network.dyn_peer[98] 	lookupHopsSig:mean 	11.5
scalar Network.dyn_peer[99] 	lookupTimeSig:mean 	1.4
scalar Network.dyn_peer[99] 	lookupStabilitySig:mean 	0.59933172166348
scalar Network.dyn_peer[99] 	lookupHopsSig:mean 	13.333333333333
scalar Network.dyn_peer[100] 	lookupTimeSig:mean 	2.4
scalar Network.dyn_peer[100] 	lookupStabilitySig:mean 	0.36645040412744
scalar Network.dyn_peer[100] 	lookupHopsSig:mean 	23.333333333333
scalar Network.dyn_peer[101] 	lookupTimeSig:mean 	1.3666666666667
scalar Network.dyn_peer[101] 	lookupStabilitySig:mean 	0.87706699959623
scalar Network.dyn_peer[101] 	lookupHopsSig:mean 	12.75
scalar Network.dyn_peer[102] 	lookupTimeSig:mean 	1.1714285714286
scalar Network.dyn_peer[102] 	lookupStabilitySig:mean 	0.78540750566338
scalar Network.dyn_peer[102] 	lookupHopsSig:mean 	10.857142857143
scalar Network.dyn_peer[103] 	lookupTimeSig:mean 	1.18
scalar Network.dyn_peer[103] 	lookupStabilitySig:mean 	0.58274591956288
scalar Network.dyn_peer[103] 	lookupHopsSig:mean 	11
scalar Network.dyn_peer[104] 	lookupTimeSig:mean 	1.4
scalar Network.dyn_peer[104] 	lookupStabilitySig:mean 	0.54351529479027
scalar Network.dyn_peer[104] 	lookupHopsSig:mean 	13.25
scalar Network.dyn_peer[105] 	lookupTimeSig:mean 	1.45
scalar Network.dyn_peer[105] 	lookupStabilitySig:mean 	0.46714047528803
scalar Network.dyn_peer[105] 	lookupHopsSig:mean 	13.75
scalar Network.dyn_peer[106] 	lookupTimeSig:mean 	1.3333333333333
scalar Network.dyn_peer[106] 	lookupStabilitySig:mean 	0.32914979259173
scalar Network.dyn_peer[106] 	lookupHopsSig:mean 	12.666666666667
scalar Network.dyn_peer[107] 	lookupTimeSig:mean 	1.25
scalar Network.dyn_peer[107] 	lookupStabilitySig:mean 	0.5623785648495
scalar Network.dyn_peer[107] 	lookupHopsSig:mean 	11.75
scalar Network.dyn_peer[108] 	lookupTimeSig:mean 	1.35
scalar Network.dyn_peer[108] 	lookupStabilitySig:mean 	0.47250548936427
scalar Network.dyn_peer[108] 	lookupHopsSig:mean 	12.75
scalar Network.dyn_peer[109] 	lookupTimeSig:mean 	1.76
scalar Network.dyn_peer[109] 	lookupStabilitySig:mean 	0.5770206335932
scalar Network.dyn_peer[109] 	lookupHopsSig:mean 	16.8
scalar Network.dyn_peer[110] 	lookupTimeSig:mean 	1.3
scalar Network.dyn_peer[110] 	lookupStabilitySig:mean 	0.82949858676228
scalar Network.dyn_peer[110] 	lookupHopsSig:mean 	12.111111111111
scalar Network.dyn_peer[111] 	lookupTimeSig:mean 	1.7666666666667
scalar Network.dyn_peer[111] 	lookupStabilitySig:mean 	0.65502487883593
scalar Network.dyn_peer[111] 	lookupHopsSig:mean 	16.833333333333
scalar Network.dyn_peer[112] 	lookupTimeSig:mean 	1.05
scalar Network.dyn_peer[112] 	lookupStabilitySig:mean 	0.45776516012847
scalar Network.dyn_peer[112] 	lookupHopsSig:mean 	9.75
scalar Network.dyn_peer[113] 	lookupTimeSig:mean 	1.3714285714286
scalar Network.dyn_peer[113] 	lookupStabilitySig:mean 	0.68222664323236
scalar Network.dyn_peer[113] 	lookupHopsSig:mean 	12.857142857143
scalar Network.dyn_peer[114] 	lookupTimeSig:mean 	0.98
scalar Network.dyn_peer[114] 	lookupStabilitySig:mean 	0.50989753492177
scalar Network.dyn_peer[114] 	lookupHopsSig:mean 	9
scalar Network.dyn_peer[115] 	lookupTimeSig:mean 	1.2
scalar Network.dyn_peer[115] 	lookupStabilitySig:mean 	-0.0625
scalar Network.dyn_peer[115] 	lookupHopsSig:mean 	11.5
scalar Network.dyn_peer[116] 	lookupTimeSig:mean 	1.34
scalar Network.dyn_peer[116] 	lookupStabilitySig:mean 	0.72290260493755
scalar Network.dyn_peer[116] 	lookupHopsSig:mean 	12.6
scalar Network.dyn_peer[117] 	lookupTimeSig:mean 	1.2222222222222
scalar Network.dyn_peer[117] 	lookupStabilitySig:mean 	0.88441820835902
scalar Network.dyn_peer[117] 	lookupHopsSig:mean 	11.333333333333
scalar Network.dyn_peer[118] 	lookupTimeSig:mean 	1.25
scalar Network.dyn_peer[118] 	lookupStabilitySig:mean 	0.45600231736898
scalar Network.dyn_peer[118] 	lookupHopsSig:mean 	11.75
scalar Network.dyn_peer[119] 	lookupTimeSig:mean 	1.375
scalar Network.dyn_peer[119] 	lookupStabilitySig:mean 	0.57340497896075
scalar Network.dyn_peer[119] 	lookupHopsSig:mean 	13
scalar Network.dyn_peer[120] 	lookupTimeSig:mean 	0.56666666666667
scalar Network.dyn_peer[120] 	lookupStabilitySig:mean 	0.67655665737887
scalar Network.dyn_peer[120] 	lookupHopsSig:mean 	4.8333333333333
scalar Network.dyn_peer[121] 	lookupTimeSig:mean 	1.4285714285714
scalar Network.dyn_peer[121] 	lookupStabilitySig:mean 	0.90298965879317
scalar Network.dyn_peer[121] 	lookupHopsSig:mean 	13.428571428571
scalar Network.dyn_peer[122] 	lookupTimeSig:mean 	0.96666666666667
scalar Network.dyn_peer[122] 	lookupStabilitySig:mean 	0.26060606042544
scalar Network.dyn_peer[122] 	lookupHopsSig:mean 	9
scalar Network.dyn_peer[123] 	lookupTimeSig:mean 	1.6125
scalar Network.dyn_peer[123] 	lookupStabilitySig:mean 	0.67629532067804
scalar Network.dyn_peer[123] 	lookupHopsSig:mean 	15.25
scalar Network.dyn_peer[124] 	lookupTimeSig:mean 	0.75714285714286
scalar Network.dyn_peer[124] 	lookupStabilitySig:mean 	0.67684922859605
scalar Network.dyn_peer[124] 	lookupHopsSig:mean 	6.7142857142857
scalar Network.dyn_peer[125] 	lookupTimeSig:mean 	2.1
scalar Network.dyn_peer[125] 	lookupStabilitySig:mean 	0.33650792141755
scalar Network.dyn_peer[125] 	lookupHopsSig:mean 	20.333333333333
scalar Network.dyn_peer[126] 	lookupTimeSig:mean 	3.05
scalar Network.dyn_peer[126] 	lookupStabilitySig:mean 	0.12055838108063
scalar Network.dyn_peer[126] 	lookupHopsSig:mean 	30
scalar Network.dyn_peer[127] 	lookupTimeSig:mean 	1.61
scalar Network.dyn_peer[127] 	lookupStabilitySig:mean 	0.9384858419653
scalar Network.dyn_peer[127] 	lookupHopsSig:mean 	15.2
scalar Network.dyn_peer[128] 	lookupTimeSig:mean 	1.9714285714286
scalar Network.dyn_peer[128] 	lookupStabilitySig:mean 	0.7982675462429
scalar Network.dyn_peer[128] 	lookupHopsSig:mean 	18.857142857143
scalar Network.dyn_peer[129] 	lookupTimeSig:mean 	1.1
scalar Network.dyn_peer[129] 	lookupStabilitySig:mean 	0.85919169792905
scalar Network.dyn_peer[129] 	lookupHopsSig:mean 	10.1
scalar Network.dyn_peer[130] 	lookupTimeSig:mean 	1.225
scalar Network.dyn_peer[130] 	lookupStabilitySig:mean 	0.71600274788216
scalar Network.dyn_peer[130] 	lookupHopsSig:mean 	11.5
scalar Network.dyn_peer[131] 	lookupTimeSig:mean 	1.55
scalar Network.dyn_peer[131] 	lookupStabilitySig:mean 	-0.11335401237011
scalar Network.dyn_peer[131] 	lookupHopsSig:mean 	15
scalar Network.dyn_peer[132] 	lookupTimeSig:mean 	1.525
scalar Network.dyn_peer[132] 	lookupStabilitySig:mean 	0.61138059571385
scalar Network.dyn_peer[132] 	lookupHopsSig:mean 	14.5
scalar Network.dyn_peer[133] 	lookupTimeSig:mean 	0.95
scalar Network.dyn_peer[133] 	lookupStabilitySig:mean 	0.703466410283
scalar Network.dyn_peer[133] 	lookupHopsSig:mean 	8.625
scalar Network.dyn_peer[134] 	lookupTimeSig:mean 	1.3
scalar Network.dyn_peer[134] 	lookupStabilitySig:mean 	0.48527044653893
scalar Network.dyn_peer[134] 	lookupHopsSig:mean 	12.2
scalar Network.dyn_peer[135] 	lookupTimeSig:mean 	1.6333333333333
scalar Network.dyn_peer[135] 	lookupStabilitySig:mean 	0.55554183572531
scalar Network.dyn_peer[135] 	lookupHopsSig:mean 	15.666666666667
scalar Network.dyn_peer[136] 	lookupTimeSig:mean 	1.6
scalar Network.dyn_peer[136] 	lookupStabilitySig:mean 	0.25285713374615
scalar Network.dyn_peer[136] 	lookupHopsSig:mean 	15.5
scalar Network.dyn_peer[137] 	lookupTimeSig:mean 	0.8375
scalar Network.dyn_peer[137] 	lookupStabilitySig:mean 	0.69323795009404
scalar Network.dyn_peer[137] 	lookupHopsSig:mean 	7.5
scalar Network.dyn_peer[138] 	lookupTimeSig:mean 	1.5857142857143
scalar Network.dyn_peer[138] 	lookupStabilitySig:mean 	0.88444618701137
scalar Network.dyn_peer[138] 	lookupHopsSig:mean 	15
scalar Network.dyn_peer[139] 	lookupTimeSig:mean 	0.73333333333333
scalar Network.dyn_peer[139] 	lookupStabilitySig:mean 	0.61827243367831
scalar Network.dyn_peer[139] 	lookupHopsSig:mean 	6.5
scalar Network.dyn_peer[140] 	lookupTimeSig:mean 	1.075
scalar Network.dyn_peer[140] 	lookupStabilitySig:mean 	0.92137032918011
scalar Network.dyn_peer[140] 	lookupHopsSig:mean 	9.8333333333333
scalar Network.dyn_peer[141] 	lookupTimeSig:mean 	1.4818181818182
scalar Network.dyn_peer[141] 	lookupStabilitySig:mean 	0.81976658292115
scalar Network.dyn_peer[141] 	lookupHopsSig:mean 	13.909090909091
scalar Network.dyn_peer[142] 	lookupTimeSig:mean 	1.175
scalar Network.dyn_peer[142] 	lookupStabilitySig:mean 	0.48744450137019
scalar Network.dyn_peer[142] 	lookupHopsSig:mean 	11
scalar Network.dyn_peer[143] 	lookupTimeSig:mean 	1.45
scalar Network.dyn_peer[143] 	lookupStabilitySig:mean 	-0.045731708407402
scalar Network.dyn_peer[143] 	lookupHopsSig:mean 	14
scalar Network.dyn_peer[144] 	lookupTimeSig:mean 	0.95555555555556
scalar Network.dyn_peer[144] 	lookupStabilitySig:mean 	0.72808532401298
scalar Network.dyn_peer[144] 	lookupHopsSig:mean 	8.6666666666667
scalar Network.dyn_peer[145] 	lookupTimeSig:mean 	1.6333333333333
scalar Network.dyn_peer[145] 	lookupStabilitySig:mean 	0.57937353352706
scalar Network.dyn_peer[145] 	lookupHopsSig:mean 	15.666666666667
scalar Network.dyn_peer[146] 	lookupTimeSig:mean 	1.1714285714286
scalar Network.dyn_peer[146] 	lookupStabilitySig:mean 	0.74623523732381
scalar Network.dyn_peer[146] 	lookupHopsSig:mean 	10.857142857143
scalar Network.dyn_peer[147] 	lookupTimeSig:mean 	1.35
scalar Network.dyn_peer[147] 	lookupStabilitySig:mean 	-0.11974787712097
scalar Network.dyn_peer[147] 	lookupHopsSig:mean 	13
scalar Network.dyn_peer[148] 	lookupTimeSig:mean 	1.02
scalar Network.dyn_peer[148] 	lookupStabilitySig:mean 	0.54057974815369
scalar Network.dyn_peer[148] 	lookupHopsSig:mean 	9.4
scalar Network.dyn_peer[149] 	lookupTimeSig:mean 	2.0666666666667
scalar Network.dyn_peer[149] 	lookupStabilitySig:mean 	0.56643117467562
scalar Network.dyn_peer[149] 	lookupHopsSig:mean 	20
scalar Network.dyn_peer[150] 	lookupTimeSig:mean 	1.7666666666667
scalar Network.dyn_peer[150] 	lookupStabilitySig:mean 	0.29834054410458
scalar Network.dyn_peer[150] 	lookupHopsSig:mean 	17
scalar Network.dyn_peer[151] 	lookupTimeSig:mean 	1.9666666666667
scalar Network.dyn_peer[151] 	lookupStabilitySig:mean 	0.61811625833313
scalar Network.dyn_peer[151] 	lookupHopsSig:mean 	18.833333333333
scalar Network.dyn_peer[152] 	lookupTimeSig:mean 	1.9666666666667
scalar Network.dyn_peer[152] 	lookupStabilitySig:mean 	0.22707761575778
scalar Network.dyn_peer[152] 	lookupHopsSig:mean 	19
scalar Network.dyn_peer[153] 	lookupTimeSig:mean 	2.3
scalar Network.dyn_peer[153] 	lookupStabilitySig:mean 	0.754110917449
scalar Network.dyn_peer[153] 	lookupHopsSig:mean 	22.333333333333
scalar Network.dyn_peer[154] 	lookupTimeSig:mean 	1.25
scalar Network.dyn_peer[154] 	lookupStabilitySig:mean 	0.46228798665106
scalar Network.dyn_peer[154] 	lookupHopsSig:mean 	11.75
scalar Network.dyn_peer[155] 	lookupTimeSig:mean 	0.91666666666667
scalar Network.dyn_peer[155] 	lookupStabilitySig:mean 	0.86642888258211
scalar Network.dyn_peer[155] 	lookupHopsSig:mean 	8.25
scalar Network.dyn_peer[156] 	lookupTimeSig:mean 	2.075
scalar Network.dyn_peer[156] 	lookupStabilitySig:mean 	0.60897601116449
scalar Network.dyn_peer[156] 	lookupHopsSig:mean 	20
scalar Network.dyn_peer[157] 	lookupTimeSig:mean 	1.125
scalar Network.dyn_peer[157] 	lookupStabilitySig:mean 	0.64675096049905
scalar Network.dyn_peer[157] 	lookupHopsSig:mean 	10.5
scalar Network.dyn_peer[158] 	lookupTimeSig:mean 	0.8875
scalar Network.dyn_peer[158] 	lookupStabilitySig:mean 	0.71645974100102
scalar Network.dyn_peer[158] 	lookupHopsSig:mean 	8
scalar Network.dyn_peer[159] 	lookupTimeSig:mean 	2.575
scalar Network.dyn_peer[159] 	lookupStabilitySig:mean 	0.69025746919215
scalar Network.dyn_peer[159] 	lookupHopsSig:mean 	25
scalar Network.dyn_peer[160] 	lookupTimeSig:mean 	1.4666666666667
scalar Network.dyn_peer[160] 	lookupStabilitySig:mean 	0.53341214358807
scalar Network.dyn_peer[160] 	lookupHopsSig:mean 	14
scalar Network.dyn_peer[161] 	lookupTimeSig:mean 	1.2285714285714
scalar Network.dyn_peer[161] 	lookupStabilitySig:mean 	0.7184809492901
scalar Network.dyn_peer[161] 	lookupHopsSig:mean 	11.428571428571
scalar Network.dyn_peer[162] 	lookupTimeSig:mean 	0.97777777777778
scalar Network.dyn_peer[162] 	lookupStabilitySig:mean 	0.75385780363447
scalar Network.dyn_peer[162] 	lookupHopsSig:mean 	8.8888888888889
scalar Network.dyn_peer[163] 	lookupTimeSig:mean 	1.9
scalar Network.dyn_peer[163] 	lookupStabilitySig:mean 	0.67777606397867
scalar Network.dyn_peer[163] 	lookupHopsSig:mean 	18.2
scalar Network.dyn_peer[164] 	lookupTimeSig:mean 	1.68
scalar Network.dyn_peer[164] 	lookupStabilitySig:mean 	0.52327695935965
scalar Network.dyn_peer[164] 	lookupHopsSig:mean 	16
scalar Network.dyn_peer[165] 	lookupTimeSig:mean 	1.4
scalar Network.dyn_peer[165] 	lookupStabilitySig:mean 	0.59458860196173
scalar Network.dyn_peer[165] 	lookupHopsSig:mean 	13.166666666667
scalar Network.dyn_peer[166] 	lookupTimeSig:mean 	1.5875
scalar Network.dyn_peer[166] 	lookupStabilitySig:mean 	0.83381311461562
scalar Network.dyn_peer[166] 	lookupHopsSig:mean 	15
scalar Network.dyn_peer[167] 	lookupTimeSig:mean 	1.725
scalar Network.dyn_peer[167] 	lookupStabilitySig:mean 	0.78581798681989
scalar Network.dyn_peer[167] 	lookupHopsSig:mean 	16.5
scalar Network.dyn_peer[168] 	lookupTimeSig:mean 	1.4
scalar Network.dyn_peer[168] 	lookupStabilitySig:mean 	0.40480647981167
scalar Network.dyn_peer[168] 	lookupHopsSig:mean 	13.333333333333
scalar Network.dyn_peer[169] 	lookupTimeSig:mean 	1.475
scalar Network.dyn_peer[169] 	lookupStabilitySig:mean 	0.50329106673598
scalar Network.dyn_peer[169] 	lookupHopsSig:mean 	14
scalar Network.dyn_peer[170] 	lookupTimeSig:mean 	0.8
scalar Network.dyn_peer[170] 	lookupStabilitySig:mean 	0.5261654984206
scalar Network.dyn_peer[170] 	lookupHopsSig:mean 	7.25
scalar Network.dyn_peer[171] 	lookupTimeSig:mean 	1.3666666666667
scalar Network.dyn_peer[171] 	lookupStabilitySig:mean 	0.70779337206235
scalar Network.dyn_peer[171] 	lookupHopsSig:mean 	12.833333333333
scalar Network.dyn_peer[172] 	lookupTimeSig:mean 	1.55
scalar Network.dyn_peer[172] 	lookupStabilitySig:mean 	0.72651592083275
scalar Network.dyn_peer[172] 	lookupHopsSig:mean 	14.75
scalar Network.dyn_peer[173] 	lookupTimeSig:mean 	1.5166666666667
scalar Network.dyn_peer[173] 	lookupStabilitySig:mean 	0.91807665101563
scalar Network.dyn_peer[173] 	lookupHopsSig:mean 	14.25
scalar Network.dyn_peer[174] 	lookupTimeSig:mean 	2.7
scalar Network.dyn_peer[174] 	lookupStabilitySig:mean 	0.43562546869119
scalar Network.dyn_peer[174] 	lookupHopsSig:mean 	26.333333333333
scalar Network.dyn_peer[175] 	lookupTimeSig:mean 	2.2
scalar Network.dyn_peer[175] 	lookupStabilitySig:mean 	0.21448411047459
scalar Network.dyn_peer[175] 	lookupHopsSig:mean 	21.333333333333
scalar Network.dyn_peer[176] 	lookupTimeSig:mean 	1.05
scalar Network.dyn_peer[176] 	lookupStabilitySig:mean 	0.69555369764566
scalar Network.dyn_peer[176] 	lookupHopsSig:mean 	9.6666666666667
scalar Network.dyn_peer[177] 	lookupTimeSig:mean 	1
scalar Network.dyn_peer[177] 	lookupStabilitySig:mean 	0.63508452102542
scalar Network.dyn_peer[177] 	lookupHopsSig:mean 	9.25
scalar Network.dyn_peer[178] 	lookupTimeSig:mean 	2.4666666666667
scalar Network.dyn_peer[178] 	lookupStabilitySig:mean 	0.7628150805831
scalar Network.dyn_peer[178] 	lookupHopsSig:mean 	24
scalar Network.dyn_peer[179] 	lookupTimeSig:mean 	1.9333333333333
scalar Network.dyn_peer[179] 	lookupStabilitySig:mean 	0.88399605515103
scalar Network.dyn_peer[179] 	lookupHopsSig:mean 	18.5
scalar Network.dyn_peer[180] 	lookupTimeSig:mean 	2.1
scalar Network.dyn_peer[180] 	lookupStabilitySig:mean 	0.87113833458473
scalar Network.dyn_peer[180] 	lookupHopsSig:mean 	20.166666666667
scalar Network.dyn_peer[181] 	lookupTimeSig:mean 	1.3571428571429
scalar Network.dyn_peer[181] 	lookupStabilitySig:mean 	0.7161814042234
scalar Network.dyn_peer[181] 	lookupHopsSig:mean 	12.714285714286
scalar Network.dyn_peer[182] 	lookupTimeSig:mean 	1.175
scalar Network.dyn_peer[182] 	lookupStabilitySig:mean 	0.76278223027475
scalar Network.dyn_peer[182] 	lookupHopsSig:mean 	10.875
scalar Network.dyn_peer[183] 	lookupTimeSig:mean 	2.375
scalar Network.dyn_peer[183] 	lookupStabilitySig:mean 	0.62913460843265
scalar Network.dyn_peer[183] 	lookupHopsSig:mean 	23
scalar Network.dyn_peer[184] 	lookupTimeSig:mean 	0.89
scalar Network.dyn_peer[184] 	lookupStabilitySig:mean 	0.86288408217952
scalar Network.dyn_peer[184] 	lookupHopsSig:mean 	8
scalar Network.dyn_peer[185] 	lookupTimeSig:mean 	1.45
scalar Network.dyn_peer[185] 	lookupStabilitySig:mean 	0.63094993401319
scalar Network.dyn_peer[185] 	lookupHopsSig:mean 	13.666666666667
scalar Network.dyn_peer[186] 	lookupTimeSig:mean 	2.3333333333333
scalar Network.dyn_peer[186] 	lookupStabilitySig:mean 	0.57809654126565
scalar Network.dyn_peer[186] 	lookupHopsSig:mean 	22.666666666667
scalar Network.dyn_peer[187] 	lookupTimeSig:mean 	2
scalar Network.dyn_peer[187] 	lookupStabilitySig:mean 	0.8508236327519
scalar Network.dyn_peer[187] 	lookupHopsSig:mean 	19.166666666667
scalar Network.dyn_peer[188] 	lookupTimeSig:mean 	1.425
scalar Network.dyn_peer[188] 	lookupStabilitySig:mean 	0.45844796486199
scalar Network.dyn_peer[188] 	lookupHopsSig:mean 	13.5
scalar Network.dyn_peer[189] 	lookupTimeSig:mean 	1.5
scalar Network.dyn_peer[189] 	lookupStabilitySig:mean 	0.63550893543288
scalar Network.dyn_peer[189] 	lookupHopsSig:mean 	14.25
scalar Network.dyn_peer[190] 	lookupTimeSig:mean 	0.98571428571429
scalar Network.dyn_peer[190] 	lookupStabilitySig:mean 	0.86682554254574
scalar Network.dyn_peer[190] 	lookupHopsSig:mean 	9
scalar Network.dyn_peer[191] 	lookupTimeSig:mean 	1.525
scalar Network.dyn_peer[191] 	lookupStabilitySig:mean 	0.87872394151054
scalar Network.dyn_peer[191] 	lookupHopsSig:mean 	14.375
scalar Network.dyn_peer[192] 	lookupTimeSig:mean 	1
scalar Network.dyn_peer[192] 	lookupStabilitySig:mean 	0.50788300409913
scalar Network.dyn_peer[192] 	lookupHopsSig:mean 	9.2
scalar Network.dyn_peer[193] 	lookupTimeSig:mean 	2
scalar Network.dyn_peer[193] 	lookupStabilitySig:mean 	0.81707653198391
scalar Network.dyn_peer[193] 	lookupHopsSig:mean 	19.2
scalar Network.dyn_peer[194] 	lookupTimeSig:mean 	1.425
scalar Network.dyn_peer[194] 	lookupStabilitySig:mean 	0.63955331034958
scalar Network.dyn_peer[194] 	lookupHopsSig:mean 	13.5
scalar Network.dyn_peer[195] 	lookupTimeSig:mean 	1.0333333333333
scalar Network.dyn_peer[195] 	lookupStabilitySig:mean 	0.55869883298874
scalar Network.dyn_peer[195] 	lookupHopsSig:mean 	9.6666666666667
scalar Network.dyn_peer[196] 	lookupTimeSig:mean 	1.5666666666667
scalar Network.dyn_peer[196] 	lookupStabilitySig:mean 	0.52929827322563
scalar Network.dyn_peer[196] 	lookupHopsSig:mean 	15
scalar Network.dyn_peer[197] 	lookupTimeSig:mean 	1.7333333333333
scalar Network.dyn_peer[197] 	lookupStabilitySig:mean 	0.91517535400473
scalar Network.dyn_peer[197] 	lookupHopsSig:mean 	16.444444444444
scalar Network.dyn_peer[198] 	lookupTimeSig:mean 	1.65
scalar Network.dyn_peer[198] 	lookupStabilitySig:mean 	0.73766998387873
scalar Network.dyn_peer[198] 	lookupHopsSig:mean 	15.75
scalar Network.dyn_peer[199] 	lookupTimeSig:mean 	1.65
scalar Network.dyn_peer[199] 	lookupStabilitySig:mean 	0.86435331963003
scalar Network.dyn_peer[199] 	lookupHopsSig:mean 	15.666666666667
scalar Network.dyn_peer[200] 	lookupTimeSig:mean 	2.275
scalar Network.dyn_peer[200] 	lookupStabilitySig:mean 	0.57166423089802
scalar Network.dyn_peer[200] 	lookupHopsSig:mean 	22
scalar Network.dyn_peer[201] 	lookupTimeSig:mean 	0.94
scalar Network.dyn_peer[201] 	lookupStabilitySig:mean 	0.86489153206348
scalar Network.dyn_peer[201] 	lookupHopsSig:mean 	8.5
scalar Network.dyn_peer[202] 	lookupTimeSig:mean 	1.6333333333333
scalar Network.dyn_peer[202] 	lookupStabilitySig:mean 	0.53439153979222
scalar Network.dyn_peer[202] 	lookupHopsSig:mean 	15.666666666667
scalar Network.dyn_peer[203] 	lookupTimeSig:mean 	1.1875
scalar Network.dyn_peer[203] 	lookupStabilitySig:mean 	0.71263100206852
scalar Network.dyn_peer[203] 	lookupHopsSig:mean 	11
scalar Network.dyn_peer[204] 	lookupTimeSig:mean 	1.2111111111111
scalar Network.dyn_peer[204] 	lookupStabilitySig:mean 	0.76395504973415
scalar Network.dyn_peer[204] 	lookupHopsSig:mean 	11.222222222222
scalar Network.dyn_peer[205] 	lookupTimeSig:mean 	1.0666666666667
scalar Network.dyn_peer[205] 	lookupStabilitySig:mean 	0.7012710471948
scalar Network.dyn_peer[205] 	lookupHopsSig:mean 	9.8333333333333
scalar Network.dyn_peer[206] 	lookupTimeSig:mean 	1.5
scalar Network.dyn_peer[206] 	lookupStabilitySig:mean 	0.094444438815117
scalar Network.dyn_peer[206] 	lookupHopsSig:mean 	14.5
scalar Network.dyn_peer[207] 	lookupTimeSig:mean 	0.97333333333333
scalar Network.dyn_peer[207] 	lookupStabilitySig:mean 	0.93779185983973
scalar Network.dyn_peer[207] 	lookupHopsSig:mean 	8.8
scalar Network.dyn_peer[208] 	lookupTimeSig:mean 	1.7375
scalar Network.dyn_peer[208] 	lookupStabilitySig:mean 	0.82555590802804
scalar Network.dyn_peer[208] 	lookupHopsSig:mean 	16.5
scalar Network.dyn_peer[209] 	lookupTimeSig:mean 	1.4125
scalar Network.dyn_peer[209] 	lookupStabilitySig:mean 	0.8866434681695
scalar Network.dyn_peer[209] 	lookupHopsSig:mean 	13.25
scalar Network.dyn_peer[210] 	lookupTimeSig:mean 	1.0866666666667
scalar Network.dyn_peer[210] 	lookupStabilitySig:mean 	0.8757707557641
scalar Network.dyn_peer[210] 	lookupHopsSig:mean 	9.9333333333333
scalar Network.dyn_peer[211] 	lookupTimeSig:mean 	1.975
scalar Network.dyn_peer[211] 	lookupStabilitySig:mean 	0.74695753119886
scalar Network.dyn_peer[211] 	lookupHopsSig:mean 	19
scalar Network.dyn_peer[212] 	lookupTimeSig:mean 	1.6375
scalar Network.dyn_peer[212] 	lookupStabilitySig:mean 	0.73250541219022
scalar Network.dyn_peer[212] 	lookupHopsSig:mean 	15.5
scalar Network.dyn_peer[213] 	lookupTimeSig:mean 	1.34
scalar Network.dyn_peer[213] 	lookupStabilitySig:mean 	0.67379420250654
scalar Network.dyn_peer[213] 	lookupHopsSig:mean 	12.6
scalar Network.dyn_peer[214] 	lookupTimeSig:mean 	1.7125
scalar Network.dyn_peer[214] 	lookupStabilitySig:mean 	0.9104229734512
scalar Network.dyn_peer[214] 	lookupHopsSig:mean 	16.25
scalar Network.dyn_peer[215] 	lookupTimeSig:mean 	1.0714285714286
scalar Network.dyn_peer[215] 	lookupStabilitySig:mean 	0.86400734387072
scalar Network.dyn_peer[215] 	lookupHopsSig:mean 	9.8571428571429
scalar Network.dyn_peer[216] 	lookupTimeSig:mean 	1.5666666666667
scalar Network.dyn_peer[216] 	lookupStabilitySig:mean 	0.36613190174103
scalar Network.dyn_peer[216] 	lookupHopsSig:mean 	15
scalar Network.dyn_peer[217] 	lookupTimeSig:mean 	0.85714285714286
scalar Network.dyn_peer[217] 	lookupStabilitySig:mean 	0.67573265837772
scalar Network.dyn_peer[217] 	lookupHopsSig:mean 	7.7142857142857
scalar Network.dyn_peer[218] 	lookupTimeSig:mean 	1.4214285714286
scalar Network.dyn_peer[218] 	lookupStabilitySig:mean 	0.91245714947581
scalar Network.dyn_peer[218] 	lookupHopsSig:mean 	13.285714285714
scalar Network.dyn_peer[219] 	lookupTimeSig:mean 	1.25
scalar Network.dyn_peer[219] 	lookupStabilitySig:mean 	0.72728622145951
scalar Network.dyn_peer[219] 	lookupHopsSig:mean 	11.75
scalar Network.dyn_peer[220] 	lookupTimeSig:mean 	1.2571428571429
scalar Network.dyn_peer[220] 	lookupStabilitySig:mean 	0.80658604949713
scalar Network.dyn_peer[220] 	lookupHopsSig:mean 	11.714285714286
scalar Network.dyn_peer[221] 	lookupTimeSig:mean 	1.66
scalar Network.dyn_peer[221] 	lookupStabilitySig:mean 	0.72122505903244
scalar Network.dyn_peer[221] 	lookupHopsSig:mean 	15.8
scalar Network.dyn_peer[222] 	lookupTimeSig:mean 	1.98
scalar Network.dyn_peer[222] 	lookupStabilitySig:mean 	0.6837778441608
scalar Network.dyn_peer[222] 	lookupHopsSig:mean 	19
scalar Network.dyn_peer[223] 	lookupTimeSig:mean 	3
scalar Network.dyn_peer[223] 	lookupStabilitySig:mean 	0.57091837376356
scalar Network.dyn_peer[223] 	lookupHopsSig:mean 	29.5
scalar Network.dyn_peer[224] 	lookupTimeSig:mean 	1.55
scalar Network.dyn_peer[224] 	lookupStabilitySig:mean 	0.52355383709073
scalar Network.dyn_peer[224] 	lookupHopsSig:mean 	14.75
scalar Network.dyn_peer[225] 	lookupTimeSig:mean 	1.16
scalar Network.dyn_peer[225] 	lookupStabilitySig:mean 	0.60425565391779
scalar Network.dyn_peer[225] 	lookupHopsSig:mean 	10.8
scalar Network.dyn_peer[226] 	lookupTimeSig:mean 	1.5571428571429
scalar Network.dyn_peer[226] 	lookupStabilitySig:mean 	0.79279968022768
scalar Network.dyn_peer[226] 	lookupHopsSig:mean 	14.714285714286
scalar Network.dyn_peer[227] 	lookupTimeSig:mean 	0.875
scalar Network.dyn_peer[227] 	lookupStabilitySig:mean 	0.6020613797009
scalar Network.dyn_peer[227] 	lookupHopsSig:mean 	8
scalar Network.dyn_peer[228] 	lookupTimeSig:mean 	1.3333333333333
scalar Network.dyn_peer[228] 	lookupStabilitySig:mean 	0.75699722704788
scalar Network.dyn_peer[228] 	lookupHopsSig:mean 	12.5
scalar Network.dyn_peer[229] 	lookupTimeSig:mean 	1.15
scalar Network.dyn_peer[229] 	lookupStabilitySig:mean 	0.23999997973442
scalar Network.dyn_peer[229] 	lookupHopsSig:mean 	11
scalar Network.dyn_peer[230] 	lookupTimeSig:mean 	1.8666666666667
scalar Network.dyn_peer[230] 	lookupStabilitySig:mean 	0.5875752940774
scalar Network.dyn_peer[230] 	lookupHopsSig:mean 	17.833333333333
scalar Network.dyn_peer[231] 	lookupTimeSig:mean 	1.2
scalar Network.dyn_peer[231] 	lookupStabilitySig:mean 	0.43016075715423
scalar Network.dyn_peer[231] 	lookupHopsSig:mean 	11.25
scalar Network.dyn_peer[232] 	lookupTimeSig:mean 	1.4666666666667
scalar Network.dyn_peer[232] 	lookupStabilitySig:mean 	0.51957198232412
scalar Network.dyn_peer[232] 	lookupHopsSig:mean 	14
scalar Network.dyn_peer[233] 	lookupTimeSig:mean 	1.3333333333333
scalar Network.dyn_peer[233] 	lookupStabilitySig:mean 	0.48308911422888
scalar Network.dyn_peer[233] 	lookupHopsSig:mean 	12.666666666667
scalar Network.dyn_peer[234] 	lookupTimeSig:mean 	0.53333333333333
scalar Network.dyn_peer[234] 	lookupStabilitySig:mean 	0.3809523632129
scalar Network.dyn_peer[234] 	lookupHopsSig:mean 	4.6666666666667
scalar Network.dyn_peer[235] 	lookupTimeSig:mean 	1.9
scalar Network.dyn_peer[235] 	lookupStabilitySig:mean 	0.56222165599465
scalar Network.dyn_peer[235] 	lookupHopsSig:mean 	18.2
scalar Network.dyn_peer[236] 	lookupTimeSig:mean 	0.86666666666667
scalar Network.dyn_peer[236] 	lookupStabilitySig:mean 	0.90121402084414
scalar Network.dyn_peer[236] 	lookupHopsSig:mean 	7.7777777777778
scalar Network.dyn_peer[237] 	lookupTimeSig:mean 	1.35
scalar Network.dyn_peer[237] 	lookupStabilitySig:mean 	0.83773583266884
scalar Network.dyn_peer[237] 	lookupHopsSig:mean 	12.666666666667
scalar Network.dyn_peer[238] 	lookupTimeSig:mean 	1.1666666666667
scalar Network.dyn_peer[238] 	lookupStabilitySig:mean 	0.7158288438287
scalar Network.dyn_peer[238] 	lookupHopsSig:mean 	10.777777777778
scalar Network.dyn_peer[239] 	lookupTimeSig:mean 	1.38
scalar Network.dyn_peer[239] 	lookupStabilitySig:mean 	0.70408314019442
scalar Network.dyn_peer[239] 	lookupHopsSig:mean 	13
scalar Network.dyn_peer[240] 	lookupTimeSig:mean 	1.2333333333333
scalar Network.dyn_peer[240] 	lookupStabilitySig:mean 	0.27357126275698
scalar Network.dyn_peer[240] 	lookupHopsSig:mean 	11.666666666667
scalar Network.dyn_peer[241] 	lookupTimeSig:mean 	1.3230769230769
scalar Network.dyn_peer[241] 	lookupStabilitySig:mean 	0.88129751484555
scalar Network.dyn_peer[241] 	lookupHopsSig:mean 	12.307692307692
scalar Network.dyn_peer[242] 	lookupTimeSig:mean 	0.7
scalar Network.dyn_peer[242] 	lookupStabilitySig:mean 	0.70737995486706
scalar Network.dyn_peer[242] 	lookupHopsSig:mean 	6.25
scalar Network.dyn_peer[243] 	lookupTimeSig:mean 	1.1555555555556
scalar Network.dyn_peer[243] 	lookupStabilitySig:mean 	0.74843126395717
scalar Network.dyn_peer[243] 	lookupHopsSig:mean 	10.666666666667
scalar Network.dyn_peer[244] 	lookupTimeSig:mean 	2.35
scalar Network.dyn_peer[244] 	lookupStabilitySig:mean 	0.52755696326494
scalar Network.dyn_peer[244] 	lookupHopsSig:mean 	23
scalar Network.dyn_peer[245] 	lookupTimeSig:mean 	1.2714285714286
scalar Network.dyn_peer[245] 	lookupStabilitySig:mean 	0.66877131017723
scalar Network.dyn_peer[245] 	lookupHopsSig:mean 	11.857142857143
scalar Network.dyn_peer[246] 	lookupTimeSig:mean 	1.5
scalar Network.dyn_peer[246] 	lookupStabilitySig:mean 	0.59374388307333
scalar Network.dyn_peer[246] 	lookupHopsSig:mean 	14.333333333333
scalar Network.dyn_peer[247] 	lookupTimeSig:mean 	1.4666666666667
scalar Network.dyn_peer[247] 	lookupStabilitySig:mean 	0.53188853959242
scalar Network.dyn_peer[247] 	lookupHopsSig:mean 	14
scalar Network.dyn_peer[248] 	lookupTimeSig:mean 	1.3
scalar Network.dyn_peer[248] 	lookupStabilitySig:mean 	0.62997106611729
scalar Network.dyn_peer[248] 	lookupHopsSig:mean 	12.2
scalar Network.dyn_peer[249] 	lookupTimeSig:mean 	1.6333333333333
scalar Network.dyn_peer[249] 	lookupStabilitySig:mean 	0.30371823906898
scalar Network.dyn_peer[249] 	lookupHopsSig:mean 	15.666666666667
scalar Network.dyn_peer[250] 	lookupTimeSig:mean 	1.3166666666667
scalar Network.dyn_peer[250] 	lookupStabilitySig:mean 	0.86474477542409
scalar Network.dyn_peer[250] 	lookupHopsSig:mean 	12.25
scalar Network.dyn_peer[251] 	lookupTimeSig:mean 	1.3
scalar Network.dyn_peer[251] 	lookupStabilitySig:mean 	0.44034178741276
scalar Network.dyn_peer[251] 	lookupHopsSig:mean 	12.25
scalar Network.dyn_peer[252] 	lookupTimeSig:mean 	1.18
scalar Network.dyn_peer[252] 	lookupStabilitySig:mean 	0.60350521728396
scalar Network.dyn_peer[252] 	lookupHopsSig:mean 	11
scalar Network.dyn_peer[253] 	lookupTimeSig:mean 	1.65
scalar Network.dyn_peer[253] 	lookupStabilitySig:mean 	0.57772396504879
scalar Network.dyn_peer[253] 	lookupHopsSig:mean 	16
scalar Network.dyn_peer[254] 	lookupTimeSig:mean 	2.125
scalar Network.dyn_peer[254] 	lookupStabilitySig:mean 	0.44304391182959
scalar Network.dyn_peer[254] 	lookupHopsSig:mean 	20.5
scalar Network.dyn_peer[255] 	lookupTimeSig:mean 	1.175
scalar Network.dyn_peer[255] 	lookupStabilitySig:mean 	0.42821808718145
scalar Network.dyn_peer[255] 	lookupHopsSig:mean 	11
scalar Network.dyn_peer[256] 	lookupTimeSig:mean 	1.65
scalar Network.dyn_peer[256] 	lookupStabilitySig:mean 	0.74700541390727
scalar Network.dyn_peer[256] 	lookupHopsSig:mean 	15.666666666667
scalar Network.dyn_peer[257] 	lookupTimeSig:mean 	1.4181818181818
scalar Network.dyn_peer[257] 	lookupStabilitySig:mean 	0.90587364924564
scalar Network.dyn_peer[257] 	lookupHopsSig:mean 	13.272727272727
scalar Network.dyn_peer[258] 	lookupTimeSig:mean 	1.15
scalar Network.dyn_peer[258] 	lookupStabilitySig:mean 	0.44090311601758
scalar Network.dyn_peer[258] 	lookupHopsSig:mean 	10.75
scalar Network.dyn_peer[259] 	lookupTimeSig:mean 	1.0833333333333
scalar Network.dyn_peer[259] 	lookupStabilitySig:mean 	0.67359895181532
scalar Network.dyn_peer[259] 	lookupHopsSig:mean 	10
scalar Network.dyn_peer[260] 	lookupTimeSig:mean 	0.975
scalar Network.dyn_peer[260] 	lookupStabilitySig:mean 	0.55675286706537
scalar Network.dyn_peer[260] 	lookupHopsSig:mean 	9
scalar Network.dyn_peer[261] 	lookupTimeSig:mean 	0.625
scalar Network.dyn_peer[261] 	lookupStabilitySig:mean 	0.51334753260016
scalar Network.dyn_peer[261] 	lookupHopsSig:mean 	5.5
scalar Network.dyn_peer[262] 	lookupTimeSig:mean 	1.88
scalar Network.dyn_peer[262] 	lookupStabilitySig:mean 	0.76515086628497
scalar Network.dyn_peer[262] 	lookupHopsSig:mean 	18
scalar Network.dyn_peer[263] 	lookupTimeSig:mean 	1.12
scalar Network.dyn_peer[263] 	lookupStabilitySig:mean 	0.56611887663603
scalar Network.dyn_peer[263] 	lookupHopsSig:mean 	10.4
scalar Network.dyn_peer[264] 	lookupTimeSig:mean 	1.2333333333333
scalar Network.dyn_peer[264] 	lookupStabilitySig:mean 	0.94320013099867
scalar Network.dyn_peer[264] 	lookupHopsSig:mean 	11.444444444444
scalar Network.dyn_peer[265] 	lookupTimeSig:mean 	1.5285714285714
scalar Network.dyn_peer[265] 	lookupStabilitySig:mean 	0.85401324289186
scalar Network.dyn_peer[265] 	lookupHopsSig:mean 	14.428571428571
scalar Network.dyn_peer[266] 	lookupTimeSig:mean 	1.2
scalar Network.dyn_peer[266] 	lookupStabilitySig:mean 	0.74891515634954
scalar Network.dyn_peer[266] 	lookupHopsSig:mean 	11.166666666667
scalar Network.dyn_peer[267] 	lookupTimeSig:mean 	1.46
scalar Network.dyn_peer[267] 	lookupStabilitySig:mean 	0.95275532081723
scalar Network.dyn_peer[267] 	lookupHopsSig:mean 	13.7
scalar Network.dyn_peer[268] 	lookupTimeSig:mean 	0.78
scalar Network.dyn_peer[268] 	lookupStabilitySig:mean 	0.63666665703058
scalar Network.dyn_peer[268] 	lookupHopsSig:mean 	7
scalar Network.dyn_peer[269] 	lookupTimeSig:mean 	1.525
scalar Network.dyn_peer[269] 	lookupStabilitySig:mean 	0.50100329099223
scalar Network.dyn_peer[269] 	lookupHopsSig:mean 	14.5
scalar Network.dyn_peer[270] 	lookupTimeSig:mean 	1.375
scalar Network.dyn_peer[270] 	lookupStabilitySig:mean 	0.51566092483699
scalar Network.dyn_peer[270] 	lookupHopsSig:mean 	13
scalar Network.dyn_peer[271] 	lookupTimeSig:mean 	1.2769230769231
scalar Network.dyn_peer[271] 	lookupStabilitySig:mean 	0.92003937280522
scalar Network.dyn_peer[271] 	lookupHopsSig:mean 	11.846153846154
scalar Network.dyn_peer[272] 	lookupTimeSig:mean 	1.8666666666667
scalar Network.dyn_peer[272] 	lookupStabilitySig:mean 	0.62398588160674
scalar Network.dyn_peer[272] 	lookupHopsSig:mean 	18
scalar Network.dyn_peer[273] 	lookupTimeSig:mean 	0.675
scalar Network.dyn_peer[273] 	lookupStabilitySig:mean 	0.49370301142335
scalar Network.dyn_peer[273] 	lookupHopsSig:mean 	6
scalar Network.dyn_peer[274] 	lookupTimeSig:mean 	1.65
scalar Network.dyn_peer[274] 	lookupStabilitySig:mean 	0.4583333209157
scalar Network.dyn_peer[274] 	lookupHopsSig:mean 	16
scalar Network.dyn_peer[275] 	lookupTimeSig:mean 	1.4
scalar Network.dyn_peer[275] 	lookupStabilitySig:mean 	0.39733600368102
scalar Network.dyn_peer[275] 	lookupHopsSig:mean 	13.333333333333
scalar Network.dyn_peer[276] 	lookupTimeSig:mean 	1.5833333333333
scalar Network.dyn_peer[276] 	lookupStabilitySig:mean 	0.77942566946149
scalar Network.dyn_peer[276] 	lookupHopsSig:mean 	15
scalar Network.dyn_peer[277] 	lookupTimeSig:mean 	1.0083333333333
scalar Network.dyn_peer[277] 	lookupStabilitySig:mean 	0.93925186510508
scalar Network.dyn_peer[277] 	lookupHopsSig:mean 	9.1666666666667
scalar Network.dyn_peer[278] 	lookupTimeSig:mean 	1.6
scalar Network.dyn_peer[278] 	lookupStabilitySig:mean 	0.80946535473534
scalar Network.dyn_peer[278] 	lookupHopsSig:mean 	15.166666666667
scalar Network.dyn_peer[279] 	lookupTimeSig:mean 	1.3714285714286
scalar Network.dyn_peer[279] 	lookupStabilitySig:mean 	0.74840720649809
scalar Network.dyn_peer[279] 	lookupHopsSig:mean 	12.857142857143
scalar Network.dyn_peer[280] 	lookupTimeSig:mean 	0.76666666666667
scalar Network.dyn_peer[280] 	lookupStabilitySig:mean 	0.34320987264315
scalar Network.dyn_peer[280] 	lookupHopsSig:mean 	7
scalar Network.dyn_peer[281] 	lookupTimeSig:mean 	1.3444444444444
scalar Network.dyn_peer[281] 	lookupStabilitySig:mean 	0.82088054271622
scalar Network.dyn_peer[281] 	lookupHopsSig:mean 	12.555555555556
scalar Network.dyn_peer[282] 	lookupTimeSig:mean 	0.98888888888889
scalar Network.dyn_peer[282] 	lookupStabilitySig:mean 	0.76353158372351
scalar Network.dyn_peer[282] 	lookupHopsSig:mean 	9
scalar Network.dyn_peer[283] 	lookupTimeSig:mean 	1.525
scalar Network.dyn_peer[283] 	lookupStabilitySig:mean 	0.77879583463073
scalar Network.dyn_peer[283] 	lookupHopsSig:mean 	14.5
scalar Network.dyn_peer[284] 	lookupTimeSig:mean 	1.2
scalar Network.dyn_peer[284] 	lookupStabilitySig:mean 	0.79000639201452
scalar Network.dyn_peer[284] 	lookupHopsSig:mean 	11.166666666667
scalar Network.dyn_peer[285] 	lookupTimeSig:mean 	1.4
scalar Network.dyn_peer[285] 	lookupStabilitySig:mean 	0.75563068395214
scalar Network.dyn_peer[285] 	lookupHopsSig:mean 	13.142857142857
scalar Network.dyn_peer[286] 	lookupTimeSig:mean 	1.175
scalar Network.dyn_peer[286] 	lookupStabilitySig:mean 	0.64198448881507
scalar Network.dyn_peer[286] 	lookupHopsSig:mean 	11
scalar Network.dyn_peer[287] 	lookupTimeSig:mean 	0.94
scalar Network.dyn_peer[287] 	lookupStabilitySig:mean 	0.62875076383352
scalar Network.dyn_peer[287] 	lookupHopsSig:mean 	8.6
scalar Network.dyn_peer[288] 	lookupTimeSig:mean 	2.25
scalar Network.dyn_peer[288] 	lookupStabilitySig:mean 	0.12431244552135
scalar Network.dyn_peer[288] 	lookupHopsSig:mean 	22
scalar Network.dyn_peer[289] 	lookupTimeSig:mean 	1.5
scalar Network.dyn_peer[289] 	lookupStabilitySig:mean 	0.60212766379118
scalar Network.dyn_peer[289] 	lookupHopsSig:mean 	14.5
scalar Network.dyn_peer[290] 	lookupTimeSig:mean 	1.3142857142857
scalar Network.dyn_peer[290] 	lookupStabilitySig:mean 	0.88035464792379
scalar Network.dyn_peer[290] 	lookupHopsSig:mean 	12.285714285714
scalar Network.dyn_peer[291] 	lookupTimeSig:mean 	1.2923076923077
scalar Network.dyn_peer[291] 	lookupStabilitySig:mean 	0.93245885857882
scalar Network.dyn_peer[291] 	lookupHopsSig:mean 	12
scalar Network.dyn_peer[292] 	lookupTimeSig:mean 	1.0625
scalar Network.dyn_peer[292] 	lookupStabilitySig:mean 	0.86915350309573
scalar Network.dyn_peer[292] 	lookupHopsSig:mean 	9.75
scalar Network.dyn_peer[293] 	lookupTimeSig:mean 	0.84615384615385
scalar Network.dyn_peer[293] 	lookupStabilitySig:mean 	0.8714935584352
scalar Network.dyn_peer[293] 	lookupHopsSig:mean 	7.5384615384615
scalar Network.dyn_peer[294] 	lookupTimeSig:mean 	1.16
scalar Network.dyn_peer[294] 	lookupStabilitySig:mean 	0.84958051238209
scalar Network.dyn_peer[294] 	lookupHopsSig:mean 	10.8
scalar Network.dyn_peer[295] 	lookupTimeSig:mean 	0.98
scalar Network.dyn_peer[295] 	lookupStabilitySig:mean 	0.61478720754385
scalar Network.dyn_peer[295] 	lookupHopsSig:mean 	9
scalar Network.dyn_peer[296] 	lookupTimeSig:mean 	2.3666666666667
scalar Network.dyn_peer[296] 	lookupStabilitySig:mean 	0.88869812774161
scalar Network.dyn_peer[296] 	lookupHopsSig:mean 	22.833333333333
scalar Network.dyn_peer[297] 	lookupTimeSig:mean 	1.1272727272727
scalar Network.dyn_peer[297] 	lookupStabilitySig:mean 	0.81946287973022
scalar Network.dyn_peer[297] 	lookupHopsSig:mean 	10.363636363636
scalar Network.dyn_peer[298] 	lookupTimeSig:mean 	1.0785714285714
scalar Network.dyn_peer[298] 	lookupStabilitySig:mean 	0.83847909128027
scalar Network.dyn_peer[298] 	lookupHopsSig:mean 	9.8571428571429
scalar Network.dyn_peer[299] 	lookupTimeSig:mean 	1.5666666666667
scalar Network.dyn_peer[299] 	lookupStabilitySig:mean 	0.77031478487576
scalar Network.dyn_peer[299] 	lookupHopsSig:mean 	14.833333333333
scalar Network.dyn_peer[300] 	lookupTimeSig:mean 	1.3
scalar Network.dyn_peer[300] 	lookupStabilitySig:mean 	0.79924040753394
scalar Network.dyn_peer[300] 	lookupHopsSig:mean 	12.125
scalar Network.dyn_peer[301] 	lookupTimeSig:mean 	1.5
scalar Network.dyn_peer[301] 	lookupStabilitySig:mean 	0.75696550565772
scalar Network.dyn_peer[301] 	lookupHopsSig:mean 	14.125
scalar Network.dyn_peer[302] 	lookupTimeSig:mean 	1.4714285714286
scalar Network.dyn_peer[302] 	lookupStabilitySig:mean 	0.89197793975472
scalar Network.dyn_peer[302] 	lookupHopsSig:mean 	13.857142857143
scalar Network.dyn_peer[303] 	lookupTimeSig:mean 	1.6333333333333
scalar Network.dyn_peer[303] 	lookupStabilitySig:mean 	0.63815003881852
scalar Network.dyn_peer[303] 	lookupHopsSig:mean 	15.666666666667
scalar Network.dyn_peer[304] 	lookupTimeSig:mean 	0.98333333333333
scalar Network.dyn_peer[304] 	lookupStabilitySig:mean 	0.78453062133243
scalar Network.dyn_peer[304] 	lookupHopsSig:mean 	9
scalar Network.dyn_peer[305] 	lookupTimeSig:mean 	1.88
scalar Network.dyn_peer[305] 	lookupStabilitySig:mean 	0.90539012420923
scalar Network.dyn_peer[305] 	lookupHopsSig:mean 	17.9
scalar Network.dyn_peer[306] 	lookupTimeSig:mean 	1.025
scalar Network.dyn_peer[306] 	lookupStabilitySig:mean 	0.87901326053543
scalar Network.dyn_peer[306] 	lookupHopsSig:mean 	9.3333333333333
scalar Network.dyn_peer[307] 	lookupTimeSig:mean 	0.81
scalar Network.dyn_peer[307] 	lookupStabilitySig:mean 	0.76875169454142
scalar Network.dyn_peer[307] 	lookupHopsSig:mean 	7.2
scalar Network.dyn_peer[308] 	lookupTimeSig:mean 	1.775
scalar Network.dyn_peer[308] 	lookupStabilitySig:mean 	0.49977037496865
scalar Network.dyn_peer[308] 	lookupHopsSig:mean 	17
scalar Network.dyn_peer[309] 	lookupTimeSig:mean 	2.1
scalar Network.dyn_peer[309] 	lookupStabilitySig:mean 	0.59900122880936
scalar Network.dyn_peer[309] 	lookupHopsSig:mean 	20.333333333333
scalar Network.dyn_peer[310] 	lookupTimeSig:mean 	1.4285714285714
scalar Network.dyn_peer[310] 	lookupStabilitySig:mean 	0.74961150091674
scalar Network.dyn_peer[310] 	lookupHopsSig:mean 	13.428571428571
scalar Network.dyn_peer[311] 	lookupTimeSig:mean 	1.2222222222222
scalar Network.dyn_peer[311] 	lookupStabilitySig:mean 	0.87817681818787
scalar Network.dyn_peer[311] 	lookupHopsSig:mean 	11.333333333333
scalar Network.dyn_peer[312] 	lookupTimeSig:mean 	0.95
scalar Network.dyn_peer[312] 	lookupStabilitySig:mean 	0.20476191490889
scalar Network.dyn_peer[312] 	lookupHopsSig:mean 	9
scalar Network.dyn_peer[313] 	lookupTimeSig:mean 	2.5
scalar Network.dyn_peer[313] 	lookupStabilitySig:mean 	0.56241284807523
scalar Network.dyn_peer[313] 	lookupHopsSig:mean 	24.333333333333
scalar Network.dyn_peer[314] 	lookupTimeSig:mean 	3.25
scalar Network.dyn_peer[314] 	lookupStabilitySig:mean 	0.44853822886944
scalar Network.dyn_peer[314] 	lookupHopsSig:mean 	32
scalar Network.dyn_peer[315] 	lookupTimeSig:mean 	1.3454545454545
scalar Network.dyn_peer[315] 	lookupStabilitySig:mean 	0.90743026594547
scalar Network.dyn_peer[315] 	lookupHopsSig:mean 	12.545454545455
scalar Network.dyn_peer[316] 	lookupTimeSig:mean 	1.2571428571429
scalar Network.dyn_peer[316] 	lookupStabilitySig:mean 	0.7109249965953
scalar Network.dyn_peer[316] 	lookupHopsSig:mean 	11.714285714286
scalar Network.dyn_peer[317] 	lookupTimeSig:mean 	1.125
scalar Network.dyn_peer[317] 	lookupStabilitySig:mean 	0.59060198441148
scalar Network.dyn_peer[317] 	lookupHopsSig:mean 	10.5
scalar Network.dyn_peer[318] 	lookupTimeSig:mean 	1.0375
scalar Network.dyn_peer[318] 	lookupStabilitySig:mean 	0.89364166918676
scalar Network.dyn_peer[318] 	lookupHopsSig:mean 	9.5
scalar Network.dyn_peer[319] 	lookupTimeSig:mean 	1.25
scalar Network.dyn_peer[319] 	lookupStabilitySig:mean 	0.74936950393021
scalar Network.dyn_peer[319] 	lookupHopsSig:mean 	11.75
scalar Network.dyn_peer[320] 	lookupTimeSig:mean 	2.3666666666667
scalar Network.dyn_peer[320] 	lookupStabilitySig:mean 	0.68613841260473
scalar Network.dyn_peer[320] 	lookupHopsSig:mean 	23
scalar Network.dyn_peer[321] 	lookupTimeSig:mean 	0.98
scalar Network.dyn_peer[321] 	lookupStabilitySig:mean 	0.7272768355906
scalar Network.dyn_peer[321] 	lookupHopsSig:mean 	9
scalar Network.dyn_peer[322] 	lookupTimeSig:mean 	1.86
scalar Network.dyn_peer[322] 	lookupStabilitySig:mean 	0.6956789791584
scalar Network.dyn_peer[322] 	lookupHopsSig:mean 	17.8
scalar Network.dyn_peer[323] 	lookupTimeSig:mean 	1.1555555555556
scalar Network.dyn_peer[323] 	lookupStabilitySig:mean 	0.86207715062321
scalar Network.dyn_peer[323] 	lookupHopsSig:mean 	10.666666666667
scalar Network.dyn_peer[324] 	lookupTimeSig:mean 	1.0285714285714
scalar Network.dyn_peer[324] 	lookupStabilitySig:mean 	0.89152534332659
scalar Network.dyn_peer[324] 	lookupHopsSig:mean 	9.4285714285714
scalar Network.dyn_peer[325] 	lookupTimeSig:mean 	1.54
scalar Network.dyn_peer[325] 	lookupStabilitySig:mean 	0.74931476227939
scalar Network.dyn_peer[325] 	lookupHopsSig:mean 	14.6
scalar Network.dyn_peer[326] 	lookupTimeSig:mean 	1.4
scalar Network.dyn_peer[326] 	lookupStabilitySig:mean 	0.67817961371371
scalar Network.dyn_peer[326] 	lookupHopsSig:mean 	13.142857142857
scalar Network.dyn_peer[327] 	lookupTimeSig:mean 	1.625
scalar Network.dyn_peer[327] 	lookupStabilitySig:mean 	0.91329029720509
scalar Network.dyn_peer[327] 	lookupHopsSig:mean 	15.375
scalar Network.dyn_peer[328] 	lookupTimeSig:mean 	1.6
scalar Network.dyn_peer[328] 	lookupStabilitySig:mean 	0.5904928766191
scalar Network.dyn_peer[328] 	lookupHopsSig:mean 	15.2
scalar Network.dyn_peer[329] 	lookupTimeSig:mean 	2.2333333333333
scalar Network.dyn_peer[329] 	lookupStabilitySig:mean 	0.37173980971177
scalar Network.dyn_peer[329] 	lookupHopsSig:mean 	21.666666666667
scalar Network.dyn_peer[330] 	lookupTimeSig:mean 	3.35
scalar Network.dyn_peer[330] 	lookupStabilitySig:mean 	0.69733852520585
scalar Network.dyn_peer[330] 	lookupHopsSig:mean 	33
scalar Network.dyn_peer[331] 	lookupTimeSig:mean 	1.4125
scalar Network.dyn_peer[331] 	lookupStabilitySig:mean 	0.8191018642392
scalar Network.dyn_peer[331] 	lookupHopsSig:mean 	13.25
scalar Network.dyn_peer[332] 	lookupTimeSig:mean 	1.1222222222222
scalar Network.dyn_peer[332] 	lookupStabilitySig:mean 	0.78073190421694
scalar Network.dyn_peer[332] 	lookupHopsSig:mean 	10.333333333333
scalar Network.dyn_peer[333] 	lookupTimeSig:mean 	1.28
scalar Network.dyn_peer[333] 	lookupStabilitySig:mean 	0.92053436543792
scalar Network.dyn_peer[333] 	lookupHopsSig:mean 	11.9
scalar Network.dyn_peer[334] 	lookupTimeSig:mean 	1.25
scalar Network.dyn_peer[334] 	lookupStabilitySig:mean 	0.91291070003062
scalar Network.dyn_peer[334] 	lookupHopsSig:mean 	11.6
scalar Network.dyn_peer[335] 	lookupTimeSig:mean 	0.75
scalar Network.dyn_peer[335] 	lookupStabilitySig:mean 	0.48970587551594
scalar Network.dyn_peer[335] 	lookupHopsSig:mean 	6.75
scalar Network.dyn_peer[336] 	lookupTimeSig:mean 	1.26
scalar Network.dyn_peer[336] 	lookupStabilitySig:mean 	0.90258717890829
scalar Network.dyn_peer[336] 	lookupHopsSig:mean 	11.7
scalar Network.dyn_peer[337] 	lookupTimeSig:mean 	1.6222222222222
scalar Network.dyn_peer[337] 	lookupStabilitySig:mean 	0.8512014961905
scalar Network.dyn_peer[337] 	lookupHopsSig:mean 	15.333333333333
scalar Network.dyn_peer[338] 	lookupTimeSig:mean 	1.3083333333333
scalar Network.dyn_peer[338] 	lookupStabilitySig:mean 	0.85722088976763
scalar Network.dyn_peer[338] 	lookupHopsSig:mean 	12.166666666667
scalar Network.dyn_peer[339] 	lookupTimeSig:mean 	0.98
scalar Network.dyn_peer[339] 	lookupStabilitySig:mean 	0.69930057898164
scalar Network.dyn_peer[339] 	lookupHopsSig:mean 	9
scalar Network.dyn_peer[340] 	lookupTimeSig:mean 	0.5
scalar Network.dyn_peer[340] 	lookupStabilitySig:mean 	0.60719116479158
scalar Network.dyn_peer[340] 	lookupHopsSig:mean 	4.2
scalar Network.dyn_peer[341] 	lookupTimeSig:mean 	2.425
scalar Network.dyn_peer[341] 	lookupStabilitySig:mean 	0.79257400659844
scalar Network.dyn_peer[341] 	lookupHopsSig:mean 	23.5
scalar Network.dyn_peer[342] 	lookupTimeSig:mean 	2.55
scalar Network.dyn_peer[342] 	lookupStabilitySig:mean 	0.8301136540249
scalar Network.dyn_peer[342] 	lookupHopsSig:mean 	24.75
scalar Network.dyn_peer[343] 	lookupTimeSig:mean 	1.84
scalar Network.dyn_peer[343] 	lookupStabilitySig:mean 	0.77822397463024
scalar Network.dyn_peer[343] 	lookupHopsSig:mean 	17.6
scalar Network.dyn_peer[344] 	lookupTimeSig:mean 	1.2666666666667
scalar Network.dyn_peer[344] 	lookupStabilitySig:mean 	0.94092805559436
scalar Network.dyn_peer[344] 	lookupHopsSig:mean 	11.777777777778
scalar Network.dyn_peer[345] 	lookupTimeSig:mean 	1.12
scalar Network.dyn_peer[345] 	lookupStabilitySig:mean 	0.89604358943179
scalar Network.dyn_peer[345] 	lookupHopsSig:mean 	10.3
scalar Network.dyn_peer[346] 	lookupTimeSig:mean 	1.72
scalar Network.dyn_peer[346] 	lookupStabilitySig:mean 	0.87641296461225
scalar Network.dyn_peer[346] 	lookupHopsSig:mean 	16.4
scalar Network.dyn_peer[347] 	lookupTimeSig:mean 	1.95
scalar Network.dyn_peer[347] 	lookupStabilitySig:mean 	0.88027677405626
scalar Network.dyn_peer[347] 	lookupHopsSig:mean 	18.625
scalar Network.dyn_peer[348] 	lookupTimeSig:mean 	0.96
scalar Network.dyn_peer[348] 	lookupStabilitySig:mean 	0.61329910457134
scalar Network.dyn_peer[348] 	lookupHopsSig:mean 	8.8
scalar Network.dyn_peer[349] 	lookupTimeSig:mean 	0.6
scalar Network.dyn_peer[349] 	lookupStabilitySig:mean 	0.35672515630722
scalar Network.dyn_peer[349] 	lookupHopsSig:mean 	5.3333333333333
scalar Network.dyn_peer[350] 	lookupTimeSig:mean 	1.16
scalar Network.dyn_peer[350] 	lookupStabilitySig:mean 	0.56136744469404
scalar Network.dyn_peer[350] 	lookupHopsSig:mean 	10.8
scalar Network.dyn_peer[351] 	lookupTimeSig:mean 	0.8
scalar Network.dyn_peer[351] 	lookupStabilitySig:mean 	0.21111112087965
scalar Network.dyn_peer[351] 	lookupHopsSig:mean 	7.5
scalar Network.dyn_peer[352] 	lookupTimeSig:mean 	1.56
scalar Network.dyn_peer[352] 	lookupStabilitySig:mean 	0.67719469889998
scalar Network.dyn_peer[352] 	lookupHopsSig:mean 	14.8
scalar Network.dyn_peer[353] 	lookupTimeSig:mean 	1.8
scalar Network.dyn_peer[353] 	lookupStabilitySig:mean 	0.59359995499253
scalar Network.dyn_peer[353] 	lookupHopsSig:mean 	17.2
scalar Network.dyn_peer[354] 	lookupTimeSig:mean 	1.48
scalar Network.dyn_peer[354] 	lookupStabilitySig:mean 	0.87393601518124
scalar Network.dyn_peer[354] 	lookupHopsSig:mean 	13.9
scalar Network.dyn_peer[355] 	lookupTimeSig:mean 	1.3
scalar Network.dyn_peer[355] 	lookupStabilitySig:mean 	0.58394828531891
scalar Network.dyn_peer[355] 	lookupHopsSig:mean 	12.25
scalar Network.dyn_peer[356] 	lookupTimeSig:mean 	1.9333333333333
scalar Network.dyn_peer[356] 	lookupStabilitySig:mean 	0.69366895159086
scalar Network.dyn_peer[356] 	lookupHopsSig:mean 	18.666666666667
scalar Network.dyn_peer[357] 	lookupTimeSig:mean 	1.1666666666667
scalar Network.dyn_peer[357] 	lookupStabilitySig:mean 	0.85885932830473
scalar Network.dyn_peer[357] 	lookupHopsSig:mean 	10.733333333333
scalar Network.dyn_peer[358] 	lookupTimeSig:mean 	1.35
scalar Network.dyn_peer[358] 	lookupStabilitySig:mean 	0.70079082064331
scalar Network.dyn_peer[358] 	lookupHopsSig:mean 	12.75
scalar Network.dyn_peer[359] 	lookupTimeSig:mean 	2.35
scalar Network.dyn_peer[359] 	lookupStabilitySig:mean 	0.37804877758026
scalar Network.dyn_peer[359] 	lookupHopsSig:mean 	23
scalar Network.dyn_peer[360] 	lookupTimeSig:mean 	1.55
scalar Network.dyn_peer[360] 	lookupStabilitySig:mean 	0.21269297599792
scalar Network.dyn_peer[360] 	lookupHopsSig:mean 	15
scalar Network.dyn_peer[361] 	lookupTimeSig:mean 	1.9428571428571
scalar Network.dyn_peer[361] 	lookupStabilitySig:mean 	0.92275265903611
scalar Network.dyn_peer[361] 	lookupHopsSig:mean 	18.571428571429
scalar Network.dyn_peer[362] 	lookupTimeSig:mean 	1.44
scalar Network.dyn_peer[362] 	lookupStabilitySig:mean 	0.57071966156363
scalar Network.dyn_peer[362] 	lookupHopsSig:mean 	13.6
scalar Network.dyn_peer[363] 	lookupTimeSig:mean 	1.5142857142857
scalar Network.dyn_peer[363] 	lookupStabilitySig:mean 	0.9036364416991
scalar Network.dyn_peer[363] 	lookupHopsSig:mean 	14.285714285714
scalar Network.dyn_peer[364] 	lookupTimeSig:mean 	1.82
scalar Network.dyn_peer[364] 	lookupStabilitySig:mean 	0.88953156899661
scalar Network.dyn_peer[364] 	lookupHopsSig:mean 	17.3
scalar Network.dyn_peer[365] 	lookupTimeSig:mean 	1.125
scalar Network.dyn_peer[365] 	lookupStabilitySig:mean 	0.88158033019863
scalar Network.dyn_peer[365] 	lookupHopsSig:mean 	10.375
scalar Network.dyn_peer[366] 	lookupTimeSig:mean 	1.8
scalar Network.dyn_peer[366] 	lookupStabilitySig:mean 	0.73687790986151
scalar Network.dyn_peer[366] 	lookupHopsSig:mean 	17.25
scalar Network.dyn_peer[367] 	lookupTimeSig:mean 	1.62
scalar Network.dyn_peer[367] 	lookupStabilitySig:mean 	0.64579775705934
scalar Network.dyn_peer[367] 	lookupHopsSig:mean 	15.4
scalar Network.dyn_peer[368] 	lookupTimeSig:mean 	1.3125
scalar Network.dyn_peer[368] 	lookupStabilitySig:mean 	0.88052109838463
scalar Network.dyn_peer[368] 	lookupHopsSig:mean 	12.25
scalar Network.dyn_peer[369] 	lookupTimeSig:mean 	1.1833333333333
scalar Network.dyn_peer[369] 	lookupStabilitySig:mean 	0.73580681718886
scalar Network.dyn_peer[369] 	lookupHopsSig:mean 	11
scalar Network.dyn_peer[370] 	lookupTimeSig:mean 	1.0142857142857
scalar Network.dyn_peer[370] 	lookupStabilitySig:mean 	0.68771429945316
scalar Network.dyn_peer[370] 	lookupHopsSig:mean 	9.2857142857143
scalar Network.dyn_peer[371] 	lookupTimeSig:mean 	1.66
scalar Network.dyn_peer[371] 	lookupStabilitySig:mean 	0.7165103957057
scalar Network.dyn_peer[371] 	lookupHopsSig:mean 	15.8
scalar Network.dyn_peer[372] 	lookupTimeSig:mean 	2
scalar Network.dyn_peer[372] 	lookupStabilitySig:mean 	0.72406913200393
scalar Network.dyn_peer[372] 	lookupHopsSig:mean 	19.25
scalar Network.dyn_peer[373] 	lookupTimeSig:mean 	1.1714285714286
scalar Network.dyn_peer[373] 	lookupStabilitySig:mean 	0.83268401878221
scalar Network.dyn_peer[373] 	lookupHopsSig:mean 	10.857142857143
scalar Network.dyn_peer[374] 	lookupTimeSig:mean 	1.3166666666667
scalar Network.dyn_peer[374] 	lookupStabilitySig:mean 	0.65817436141272
scalar Network.dyn_peer[374] 	lookupHopsSig:mean 	12.333333333333
scalar Network.dyn_peer[375] 	lookupTimeSig:mean 	0.92222222222222
scalar Network.dyn_peer[375] 	lookupStabilitySig:mean 	0.9072367843344
scalar Network.dyn_peer[375] 	lookupHopsSig:mean 	8.3333333333333
scalar Network.dyn_peer[376] 	lookupTimeSig:mean 	1.7
scalar Network.dyn_peer[376] 	lookupStabilitySig:mean 	0.66872798465192
scalar Network.dyn_peer[376] 	lookupHopsSig:mean 	16.25
scalar Network.dyn_peer[377] 	lookupTimeSig:mean 	0.775
scalar Network.dyn_peer[377] 	lookupStabilitySig:mean 	0.54117031395435
scalar Network.dyn_peer[377] 	lookupHopsSig:mean 	7
scalar Network.dyn_peer[378] 	lookupTimeSig:mean 	1.1
scalar Network.dyn_peer[378] 	lookupStabilitySig:mean 	0.60402885638177
scalar Network.dyn_peer[378] 	lookupHopsSig:mean 	10.25
scalar Network.dyn_peer[379] 	lookupTimeSig:mean 	1.875
scalar Network.dyn_peer[379] 	lookupStabilitySig:mean 	0.72218032833189
scalar Network.dyn_peer[379] 	lookupHopsSig:mean 	18
scalar Network.dyn_peer[380] 	lookupTimeSig:mean 	1.3222222222222
scalar Network.dyn_peer[380] 	lookupStabilitySig:mean 	0.84456519632497
scalar Network.dyn_peer[380] 	lookupHopsSig:mean 	12.333333333333
scalar Network.dyn_peer[381] 	lookupTimeSig:mean 	1.5666666666667
scalar Network.dyn_peer[381] 	lookupStabilitySig:mean 	0.89407602045685
scalar Network.dyn_peer[381] 	lookupHopsSig:mean 	14.833333333333
scalar Network.dyn_peer[382] 	lookupTimeSig:mean 	1.1666666666667
scalar Network.dyn_peer[382] 	lookupStabilitySig:mean 	0.62291208157937
scalar Network.dyn_peer[382] 	lookupHopsSig:mean 	11
scalar Network.dyn_peer[383] 	lookupTimeSig:mean 	1.37
scalar Network.dyn_peer[383] 	lookupStabilitySig:mean 	0.88795920512639
scalar Network.dyn_peer[383] 	lookupHopsSig:mean 	12.8
scalar Network.dyn_peer[384] 	lookupTimeSig:mean 	1.2285714285714
scalar Network.dyn_peer[384] 	lookupStabilitySig:mean 	0.88205155810075
scalar Network.dyn_peer[384] 	lookupHopsSig:mean 	11.428571428571
scalar Network.dyn_peer[385] 	lookupTimeSig:mean 	3.15
scalar Network.dyn_peer[385] 	lookupStabilitySig:mean 	0.75494161993265
scalar Network.dyn_peer[385] 	lookupHopsSig:mean 	31
scalar Network.dyn_peer[386] 	lookupTimeSig:mean 	1.45
scalar Network.dyn_peer[386] 	lookupStabilitySig:mean 	0.69048294425011
scalar Network.dyn_peer[386] 	lookupHopsSig:mean 	13.75
scalar Network.dyn_peer[387] 	lookupTimeSig:mean 	1.0875
scalar Network.dyn_peer[387] 	lookupStabilitySig:mean 	0.85999992373399
scalar Network.dyn_peer[387] 	lookupHopsSig:mean 	10
scalar Network.dyn_peer[388] 	lookupTimeSig:mean 	1.0357142857143
scalar Network.dyn_peer[388] 	lookupStabilitySig:mean 	0.9548225796981
scalar Network.dyn_peer[388] 	lookupHopsSig:mean 	9.4285714285714
scalar Network.dyn_peer[389] 	lookupTimeSig:mean 	1.6
scalar Network.dyn_peer[389] 	lookupStabilitySig:mean 	0.82848189771175
scalar Network.dyn_peer[389] 	lookupHopsSig:mean 	15.25
scalar Network.dyn_peer[390] 	lookupTimeSig:mean 	1.75
scalar Network.dyn_peer[390] 	lookupStabilitySig:mean 	0.21517415344715
scalar Network.dyn_peer[390] 	lookupHopsSig:mean 	17
scalar Network.dyn_peer[391] 	lookupTimeSig:mean 	1.25
scalar Network.dyn_peer[391] 	lookupStabilitySig:mean 	0.68620961718261
scalar Network.dyn_peer[391] 	lookupHopsSig:mean 	11.75
scalar Network.dyn_peer[392] 	lookupTimeSig:mean 	1
scalar Network.dyn_peer[392] 	lookupStabilitySig:mean 	0.87686680041423
scalar Network.dyn_peer[392] 	lookupHopsSig:mean 	9.0909090909091
scalar Network.dyn_peer[393] 	lookupTimeSig:mean 	1.32
scalar Network.dyn_peer[393] 	lookupStabilitySig:mean 	0.67626506537199
scalar Network.dyn_peer[393] 	lookupHopsSig:mean 	12.4
scalar Network.dyn_peer[394] 	lookupTimeSig:mean 	0.7625
scalar Network.dyn_peer[394] 	lookupStabilitySig:mean 	0.71539678657427
scalar Network.dyn_peer[394] 	lookupHopsSig:mean 	6.75
scalar Network.dyn_peer[395] 	lookupTimeSig:mean 	1.44
scalar Network.dyn_peer[395] 	lookupStabilitySig:mean 	0.82805317826569
scalar Network.dyn_peer[395] 	lookupHopsSig:mean 	13.6
scalar Network.dyn_peer[396] 	lookupTimeSig:mean 	1.56
scalar Network.dyn_peer[396] 	lookupStabilitySig:mean 	0.72525183036923
scalar Network.dyn_peer[396] 	lookupHopsSig:mean 	14.8
scalar Network.dyn_peer[397] 	lookupTimeSig:mean 	1.04
scalar Network.dyn_peer[397] 	lookupStabilitySig:mean 	0.72664563804865
scalar Network.dyn_peer[397] 	lookupHopsSig:mean 	9.6
scalar Network.dyn_peer[398] 	lookupTimeSig:mean 	1.9
scalar Network.dyn_peer[398] 	lookupStabilitySig:mean 	0.36746987700462
scalar Network.dyn_peer[398] 	lookupHopsSig:mean 	18.5
scalar Network.dyn_peer[399] 	lookupTimeSig:mean 	1.1
scalar Network.dyn_peer[399] 	lookupStabilitySig:mean 	0.78636898317685
scalar Network.dyn_peer[399] 	lookupHopsSig:mean 	10.111111111111
scalar Network.dyn_peer[400] 	lookupTimeSig:mean 	1.2363636363636
scalar Network.dyn_peer[400] 	lookupStabilitySig:mean 	0.82907303998416
scalar Network.dyn_peer[400] 	lookupHopsSig:mean 	11.454545454545
scalar Network.dyn_peer[401] 	lookupTimeSig:mean 	1.2
scalar Network.dyn_peer[401] 	lookupStabilitySig:mean 	0.85462937355042
scalar Network.dyn_peer[401] 	lookupHopsSig:mean 	11.2
scalar Network.dyn_peer[402] 	lookupTimeSig:mean 	1.0909090909091
scalar Network.dyn_peer[402] 	lookupStabilitySig:mean 	0.88906137353148
scalar Network.dyn_peer[402] 	lookupHopsSig:mean 	10
scalar Network.dyn_peer[403] 	lookupTimeSig:mean 	1.5428571428571
scalar Network.dyn_peer[403] 	lookupStabilitySig:mean 	0.9400917435331
scalar Network.dyn_peer[403] 	lookupHopsSig:mean 	14.571428571429
scalar Network.dyn_peer[404] 	lookupTimeSig:mean 	0.85
scalar Network.dyn_peer[404] 	lookupStabilitySig:mean 	0.77972199084858
scalar Network.dyn_peer[404] 	lookupHopsSig:mean 	7.6666666666667
scalar Network.dyn_peer[405] 	lookupTimeSig:mean 	2.325
scalar Network.dyn_peer[405] 	lookupStabilitySig:mean 	0.89524571225047
scalar Network.dyn_peer[405] 	lookupHopsSig:mean 	22.5
scalar Network.dyn_peer[406] 	lookupTimeSig:mean 	1
scalar Network.dyn_peer[406] 	lookupStabilitySig:mean 	0.41304347664118
scalar Network.dyn_peer[406] 	lookupHopsSig:mean 	9.5
scalar Network.dyn_peer[407] 	lookupTimeSig:mean 	2.15
scalar Network.dyn_peer[407] 	lookupStabilitySig:mean 	0.42878788709641
scalar Network.dyn_peer[407] 	lookupHopsSig:mean 	21
scalar Network.dyn_peer[408] 	lookupTimeSig:mean 	0.97333333333333
scalar Network.dyn_peer[408] 	lookupStabilitySig:mean 	0.94986083193993
scalar Network.dyn_peer[408] 	lookupHopsSig:mean 	8.8
scalar Network.dyn_peer[409] 	lookupTimeSig:mean 	2.2666666666667
scalar Network.dyn_peer[409] 	lookupStabilitySig:mean 	0.90104349019627
scalar Network.dyn_peer[409] 	lookupHopsSig:mean 	22
scalar Network.dyn_peer[410] 	lookupTimeSig:mean 	1.45
scalar Network.dyn_peer[410] 	lookupStabilitySig:mean 	0.27551020681858
scalar Network.dyn_peer[410] 	lookupHopsSig:mean 	14
scalar Network.dyn_peer[411] 	lookupTimeSig:mean 	1.375
scalar Network.dyn_peer[411] 	lookupStabilitySig:mean 	0.79755566082895
scalar Network.dyn_peer[411] 	lookupHopsSig:mean 	13
scalar Network.dyn_peer[412] 	lookupTimeSig:mean 	1.2142857142857
scalar Network.dyn_peer[412] 	lookupStabilitySig:mean 	0.706228979198
scalar Network.dyn_peer[412] 	lookupHopsSig:mean 	11.285714285714
scalar Network.dyn_peer[413] 	lookupTimeSig:mean 	1.88
scalar Network.dyn_peer[413] 	lookupStabilitySig:mean 	0.89958150461316
scalar Network.dyn_peer[413] 	lookupHopsSig:mean 	18
scalar Network.dyn_peer[414] 	lookupTimeSig:mean 	1.2727272727273
scalar Network.dyn_peer[414] 	lookupStabilitySig:mean 	0.90602449759502
scalar Network.dyn_peer[414] 	lookupHopsSig:mean 	11.818181818182
scalar Network.dyn_peer[415] 	lookupTimeSig:mean 	1.8
scalar Network.dyn_peer[415] 	lookupStabilitySig:mean 	0.69463822990656
scalar Network.dyn_peer[415] 	lookupHopsSig:mean 	17.25
scalar Network.dyn_peer[416] 	lookupTimeSig:mean 	2.0153846153846
scalar Network.dyn_peer[416] 	lookupStabilitySig:mean 	0.94987705607827
scalar Network.dyn_peer[416] 	lookupHopsSig:mean 	19.230769230769
scalar Network.dyn_peer[417] 	lookupTimeSig:mean 	1.3
scalar Network.dyn_peer[417] 	lookupStabilitySig:mean 	0.83501921524294
scalar Network.dyn_peer[417] 	lookupHopsSig:mean 	12.125
scalar Network.dyn_peer[418] 	lookupTimeSig:mean 	1.45
scalar Network.dyn_peer[418] 	lookupStabilitySig:mean 	0.69247700832784
scalar Network.dyn_peer[418] 	lookupHopsSig:mean 	13.75
scalar Network.dyn_peer[419] 	lookupTimeSig:mean 	1.1666666666667
scalar Network.dyn_peer[419] 	lookupStabilitySig:mean 	0.58518982927004
scalar Network.dyn_peer[419] 	lookupHopsSig:mean 	11
scalar Network.dyn_peer[420] 	lookupTimeSig:mean 	1.22
scalar Network.dyn_peer[420] 	lookupStabilitySig:mean 	0.88633805061691
scalar Network.dyn_peer[420] 	lookupHopsSig:mean 	11.3
scalar Network.dyn_peer[421] 	lookupTimeSig:mean 	1.35
scalar Network.dyn_peer[421] 	lookupStabilitySig:mean 	0.92814730538521
scalar Network.dyn_peer[421] 	lookupHopsSig:mean 	12.6
[...]
scalar Network.dyn_peer[883] 	lookupTimeSig:mean 	-nan
scalar Network.dyn_peer[883] 	lookupStabilitySig:mean 	-nan
scalar Network.dyn_peer[883] 	lookupHopsSig:mean 	-nan
scalar Network.dyn_peer[884] 	lookupTimeSig:mean 	-nan
scalar Network.dyn_peer[884] 	lookupStabilitySig:mean 	-nan
scalar Network.dyn_peer[884] 	lookupHopsSig:mean 	-nan
scalar Network.dyn_peer[885] 	lookupTimeSig:mean 	-nan
scalar Network.dyn_peer[885] 	lookupStabilitySig:mean 	-nan
scalar Network.dyn_peer[885] 	lookupHopsSig:mean 	-nan
scalar Network.dyn_peer[886] 	lookupTimeSig:mean 	-nan
scalar Network.dyn_peer[886] 	lookupStabilitySig:mean 	-nan
scalar Network.dyn_peer[886] 	lookupHopsSig:mean 	-nan
scalar Network.dyn_peer[887] 	lookupTimeSig:mean 	-nan
scalar Network.dyn_peer[887] 	lookupStabilitySig:mean 	-nan
scalar Network.dyn_peer[887] 	lookupHopsSig:mean 	-nan
scalar Network.dyn_peer[888] 	lookupTimeSig:mean 	-nan
scalar Network.dyn_peer[888] 	lookupStabilitySig:mean 	-nan
scalar Network.dyn_peer[888] 	lookupHopsSig:mean 	-nan
scalar Network.dyn_peer[889] 	lookupTimeSig:mean 	-nan
scalar Network.dyn_peer[889] 	lookupStabilitySig:mean 	-nan
scalar Network.dyn_peer[889] 	lookupHopsSig:mean 	-nan
scalar Network.dyn_peer[890] 	lookupTimeSig:mean 	-nan
scalar Network.dyn_peer[890] 	lookupStabilitySig:mean 	-nan
scalar Network.dyn_peer[890] 	lookupHopsSig:mean 	-nan
scalar Network.dyn_peer[891] 	lookupTimeSig:mean 	-nan
scalar Network.dyn_peer[891] 	lookupStabilitySig:mean 	-nan
scalar Network.dyn_peer[891] 	lookupHopsSig:mean 	-nan
scalar Network.dyn_peer[892] 	lookupTimeSig:mean 	-nan
scalar Network.dyn_peer[892] 	lookupStabilitySig:mean 	-nan
scalar Network.dyn_peer[892] 	lookupHopsSig:mean 	-nan
scalar Network.dyn_peer[893] 	lookupTimeSig:mean 	-nan
scalar Network.dyn_peer[893] 	lookupStabilitySig:mean 	-nan
scalar Network.dyn_peer[893] 	lookupHopsSig:mean 	-nan
scalar Network.dyn_peer[894] 	lookupTimeSig:mean 	-nan
scalar Network.dyn_peer[894] 	lookupStabilitySig:mean 	-nan
scalar Network.dyn_peer[894] 	lookupHopsSig:mean 	-nan
scalar Network.dyn_peer[895] 	lookupTimeSig:mean 	-nan
scalar Network.dyn_peer[895] 	lookupStabilitySig:mean 	-nan
scalar Network.dyn_peer[895] 	lookupHopsSig:mean 	-nan
scalar Network.dyn_peer[896] 	lookupTimeSig:mean 	-nan
scalar Network.dyn_peer[896] 	lookupStabilitySig:mean 	-nan
scalar Network.dyn_peer[896] 	lookupHopsSig:mean 	-nan
scalar Network.dyn_peer[897] 	lookupTimeSig:mean 	-nan
scalar Network.dyn_peer[897] 	lookupStabilitySig:mean 	-nan
scalar Network.dyn_peer[897] 	lookupHopsSig:mean 	-nan
scalar Network.dyn_peer[898] 	lookupTimeSig:mean 	-nan
scalar Network.dyn_peer[898] 	lookupStabilitySig:mean 	-nan
scalar Network.dyn_peer[898] 	lookupHopsSig:mean 	-nan
scalar Network.dyn_peer[899] 	lookupTimeSig:mean 	-nan
scalar Network.dyn_peer[899] 	lookupStabilitySig:mean 	-nan
scalar Network.dyn_peer[899] 	lookupHopsSig:mean 	-nan
scalar Network.dyn_peer[900] 	lookupTimeSig:mean 	-nan
scalar Network.dyn_peer[900] 	lookupStabilitySig:mean 	-nan
scalar Network.dyn_peer[900] 	lookupHopsSig:mean 	-nan
scalar Network.dyn_peer[901] 	lookupTimeSig:mean 	-nan
scalar Network.dyn_peer[901] 	lookupStabilitySig:mean 	-nan
scalar Network.dyn_peer[901] 	lookupHopsSig:mean 	-nan
scalar Network.dyn_peer[902] 	lookupTimeSig:mean 	-nan
scalar Network.dyn_peer[902] 	lookupStabilitySig:mean 	-nan
scalar Network.dyn_peer[902] 	lookupHopsSig:mean 	-nan
scalar Network.dyn_peer[903] 	lookupTimeSig:mean 	-nan
scalar Network.dyn_peer[903] 	lookupStabilitySig:mean 	-nan
scalar Network.dyn_peer[903] 	lookupHopsSig:mean 	-nan
scalar Network.dyn_peer[904] 	lookupTimeSig:mean 	-nan
scalar Network.dyn_peer[904] 	lookupStabilitySig:mean 	-nan
scalar Network.dyn_peer[904] 	lookupHopsSig:mean 	-nan
scalar Network.dyn_peer[905] 	lookupTimeSig:mean 	-nan
scalar Network.dyn_peer[905] 	lookupStabilitySig:mean 	-nan
scalar Network.dyn_peer[905] 	lookupHopsSig:mean 	-nan
scalar Network.dyn_peer[906] 	lookupTimeSig:mean 	-nan
scalar Network.dyn_peer[906] 	lookupStabilitySig:mean 	-nan
scalar Network.dyn_peer[906] 	lookupHopsSig:mean 	-nan
scalar Network.dyn_peer[907] 	lookupTimeSig:mean 	-nan
scalar Network.dyn_peer[907] 	lookupStabilitySig:mean 	-nan
scalar Network.dyn_peer[907] 	lookupHopsSig:mean 	-nan
scalar Network.dyn_peer[908] 	lookupTimeSig:mean 	-nan
scalar Network.dyn_peer[908] 	lookupStabilitySig:mean 	-nan
scalar Network.dyn_peer[908] 	lookupHopsSig:mean 	-nan
scalar Network.dyn_peer[909] 	lookupTimeSig:mean 	-nan
scalar Network.dyn_peer[909] 	lookupStabilitySig:mean 	-nan
scalar Network.dyn_peer[909] 	lookupHopsSig:mean 	-nan
scalar Network.dyn_peer[910] 	lookupTimeSig:mean 	-nan
scalar Network.dyn_peer[910] 	lookupStabilitySig:mean 	-nan
scalar Network.dyn_peer[910] 	lookupHopsSig:mean 	-nan
scalar Network.dyn_peer[911] 	lookupTimeSig:mean 	-nan
scalar Network.dyn_peer[911] 	lookupStabilitySig:mean 	-nan
scalar Network.dyn_peer[911] 	lookupHopsSig:mean 	-nan
scalar Network.dyn_peer[912] 	lookupTimeSig:mean 	-nan
scalar Network.dyn_peer[912] 	lookupStabilitySig:mean 	-nan
scalar Network.dyn_peer[912] 	lookupHopsSig:mean 	-nan
scalar Network.dyn_peer[913] 	lookupTimeSig:mean 	-nan
scalar Network.dyn_peer[913] 	lookupStabilitySig:mean 	-nan
scalar Network.dyn_peer[913] 	lookupHopsSig:mean 	-nan
scalar Network.dyn_peer[914] 	lookupTimeSig:mean 	-nan
scalar Network.dyn_peer[914] 	lookupStabilitySig:mean 	-nan
scalar Network.dyn_peer[914] 	lookupHopsSig:mean 	-nan
scalar Network.dyn_peer[915] 	lookupTimeSig:mean 	-nan
scalar Network.dyn_peer[915] 	lookupStabilitySig:mean 	-nan
scalar Network.dyn_peer[915] 	lookupHopsSig:mean 	-nan
scalar Network.dyn_peer[916] 	lookupTimeSig:mean 	-nan
scalar Network.dyn_peer[916] 	lookupStabilitySig:mean 	-nan
scalar Network.dyn_peer[916] 	lookupHopsSig:mean 	-nan
scalar Network.dyn_peer[917] 	lookupTimeSig:mean 	-nan
scalar Network.dyn_peer[917] 	lookupStabilitySig:mean 	-nan
scalar Network.dyn_peer[917] 	lookupHopsSig:mean 	-nan
scalar Network.dyn_peer[918] 	lookupTimeSig:mean 	-nan
scalar Network.dyn_peer[918] 	lookupStabilitySig:mean 	-nan
scalar Network.dyn_peer[918] 	lookupHopsSig:mean 	-nan
scalar Network.dyn_peer[919] 	lookupTimeSig:mean 	-nan
scalar Network.dyn_peer[919] 	lookupStabilitySig:mean 	-nan
scalar Network.dyn_peer[919] 	lookupHopsSig:mean 	-nan
scalar Network.dyn_peer[920] 	lookupTimeSig:mean 	-nan
scalar Network.dyn_peer[920] 	lookupStabilitySig:mean 	-nan
scalar Network.dyn_peer[920] 	lookupHopsSig:mean 	-nan
scalar Network.dyn_peer[921] 	lookupTimeSig:mean 	-nan
scalar Network.dyn_peer[921] 	lookupStabilitySig:mean 	-nan
scalar Network.dyn_peer[921] 	lookupHopsSig:mean 	-nan
scalar Network.dyn_peer[922] 	lookupTimeSig:mean 	-nan
scalar Network.dyn_peer[922] 	lookupStabilitySig:mean 	-nan
scalar Network.dyn_peer[922] 	lookupHopsSig:mean 	-nan
scalar Network.dyn_peer[923] 	lookupTimeSig:mean 	-nan
scalar Network.dyn_peer[923] 	lookupStabilitySig:mean 	-nan
scalar Network.dyn_peer[923] 	lookupHopsSig:mean 	-nan
scalar Network.dyn_peer[924] 	lookupTimeSig:mean 	-nan
scalar Network.dyn_peer[924] 	lookupStabilitySig:mean 	-nan
scalar Network.dyn_peer[924] 	lookupHopsSig:mean 	-nan
scalar Network.dyn_peer[925] 	lookupTimeSig:mean 	-nan
scalar Network.dyn_peer[925] 	lookupStabilitySig:mean 	-nan
scalar Network.dyn_peer[925] 	lookupHopsSig:mean 	-nan
scalar Network.dyn_peer[926] 	lookupTimeSig:mean 	-nan
scalar Network.dyn_peer[926] 	lookupStabilitySig:mean 	-nan
scalar Network.dyn_peer[926] 	lookupHopsSig:mean 	-nan
scalar Network.dyn_peer[927] 	lookupTimeSig:mean 	-nan
scalar Network.dyn_peer[927] 	lookupStabilitySig:mean 	-nan
scalar Network.dyn_peer[927] 	lookupHopsSig:mean 	-nan
scalar Network.dyn_peer[928] 	lookupTimeSig:mean 	-nan
scalar Network.dyn_peer[928] 	lookupStabilitySig:mean 	-nan
scalar Network.dyn_peer[928] 	lookupHopsSig:mean 	-nan
scalar Network.dyn_peer[929] 	lookupTimeSig:mean 	-nan
scalar Network.dyn_peer[929] 	lookupStabilitySig:mean 	-nan
scalar Network.dyn_peer[929] 	lookupHopsSig:mean 	-nan
scalar Network.dyn_peer[930] 	lookupTimeSig:mean 	-nan
scalar Network.dyn_peer[930] 	lookupStabilitySig:mean 	-nan
scalar Network.dyn_peer[930] 	lookupHopsSig:mean 	-nan
scalar Network.dyn_peer[931] 	lookupTimeSig:mean 	-nan
scalar Network.dyn_peer[931] 	lookupStabilitySig:mean 	-nan
scalar Network.dyn_peer[931] 	lookupHopsSig:mean 	-nan
scalar Network.dyn_peer[932] 	lookupTimeSig:mean 	-nan
scalar Network.dyn_peer[932] 	lookupStabilitySig:mean 	-nan
scalar Network.dyn_peer[932] 	lookupHopsSig:mean 	-nan
scalar Network.dyn_peer[933] 	lookupTimeSig:mean 	-nan
scalar Network.dyn_peer[933] 	lookupStabilitySig:mean 	-nan
scalar Network.dyn_peer[933] 	lookupHopsSig:mean 	-nan
scalar Network.dyn_peer[934] 	lookupTimeSig:mean 	-nan
scalar Network.dyn_peer[934] 	lookupStabilitySig:mean 	-nan
scalar Network.dyn_peer[934] 	lookupHopsSig:mean 	-nan
scalar Network.dyn_peer[935] 	lookupTimeSig:mean 	-nan
scalar Network.dyn_peer[935] 	lookupStabilitySig:mean 	-nan
scalar Network.dyn_peer[935] 	lookupHopsSig:mean 	-nan
scalar Network.dyn_peer[936] 	lookupTimeSig:mean 	-nan
scalar Network.dyn_peer[936] 	lookupStabilitySig:mean 	-nan
scalar Network.dyn_peer[936] 	lookupHopsSig:mean 	-nan
scalar Network.dyn_peer[937] 	lookupTimeSig:mean 	-nan
scalar Network.dyn_peer[937] 	lookupStabilitySig:mean 	-nan
scalar Network.dyn_peer[937] 	lookupHopsSig:mean 	-nan
scalar Network.dyn_peer[938] 	lookupTimeSig:mean 	-nan
scalar Network.dyn_peer[938] 	lookupStabilitySig:mean 	-nan
scalar Network.dyn_peer[938] 	lookupHopsSig:mean 	-nan
scalar Network.dyn_peer[939] 	lookupTimeSig:mean 	-nan
scalar Network.dyn_peer[939] 	lookupStabilitySig:mean 	-nan
scalar Network.dyn_peer[939] 	lookupHopsSig:mean 	-nan
scalar Network.dyn_peer[940] 	lookupTimeSig:mean 	-nan
scalar Network.dyn_peer[940] 	lookupStabilitySig:mean 	-nan
scalar Network.dyn_peer[940] 	lookupHopsSig:mean 	-nan
scalar Network.dyn_peer[941] 	lookupTimeSig:mean 	-nan
scalar Network.dyn_peer[941] 	lookupStabilitySig:mean 	-nan
scalar Network.dyn_peer[941] 	lookupHopsSig:mean 	-nan
scalar Network.dyn_peer[942] 	lookupTimeSig:mean 	-nan
scalar Network.dyn_peer[942] 	lookupStabilitySig:mean 	-nan
scalar Network.dyn_peer[942] 	lookupHopsSig:mean 	-nan
scalar Network.dyn_peer[943] 	lookupTimeSig:mean 	-nan
scalar Network.dyn_peer[943] 	lookupStabilitySig:mean 	-nan
scalar Network.dyn_peer[943] 	lookupHopsSig:mean 	-nan
scalar Network.dyn_peer[944] 	lookupTimeSig:mean 	-nan
scalar Network.dyn_peer[944] 	lookupStabilitySig:mean 	-nan
scalar Network.dyn_peer[944] 	lookupHopsSig:mean 	-nan
scalar Network.dyn_peer[945] 	lookupTimeSig:mean 	-nan
scalar Network.dyn_peer[945] 	lookupStabilitySig:mean 	-nan
scalar Network.dyn_peer[945] 	lookupHopsSig:mean 	-nan
scalar Network.dyn_peer[946] 	lookupTimeSig:mean 	-nan
scalar Network.dyn_peer[946] 	lookupStabilitySig:mean 	-nan
scalar Network.dyn_peer[946] 	lookupHopsSig:mean 	-nan
scalar Network.dyn_peer[947] 	lookupTimeSig:mean 	-nan
scalar Network.dyn_peer[947] 	lookupStabilitySig:mean 	-nan
scalar Network.dyn_peer[947] 	lookupHopsSig:mean 	-nan
scalar Network.dyn_peer[948] 	lookupTimeSig:mean 	-nan
scalar Network.dyn_peer[948] 	lookupStabilitySig:mean 	-nan
scalar Network.dyn_peer[948] 	lookupHopsSig:mean 	-nan
scalar Network.dyn_peer[949] 	lookupTimeSig:mean 	-nan
scalar Network.dyn_peer[949] 	lookupStabilitySig:mean 	-nan
scalar Network.dyn_peer[949] 	lookupHopsSig:mean 	-nan
scalar Network.dyn_peer[950] 	lookupTimeSig:mean 	-nan
scalar Network.dyn_peer[950] 	lookupStabilitySig:mean 	-nan
scalar Network.dyn_peer[950] 	lookupHopsSig:mean 	-nan
scalar Network.dyn_peer[951] 	lookupTimeSig:mean 	-nan
scalar Network.dyn_peer[951] 	lookupStabilitySig:mean 	-nan
scalar Network.dyn_peer[951] 	lookupHopsSig:mean 	-nan
scalar Network.dyn_peer[952] 	lookupTimeSig:mean 	-nan
scalar Network.dyn_peer[952] 	lookupStabilitySig:mean 	-nan
scalar Network.dyn_peer[952] 	lookupHopsSig:mean 	-nan
scalar Network.dyn_peer[953] 	lookupTimeSig:mean 	-nan
scalar Network.dyn_peer[953] 	lookupStabilitySig:mean 	-nan
scalar Network.dyn_peer[953] 	lookupHopsSig:mean 	-nan
scalar Network.dyn_peer[954] 	lookupTimeSig:mean 	-nan
scalar Network.dyn_peer[954] 	lookupStabilitySig:mean 	-nan
scalar Network.dyn_peer[954] 	lookupHopsSig:mean 	-nan
scalar Network.dyn_peer[955] 	lookupTimeSig:mean 	-nan
scalar Network.dyn_peer[955] 	lookupStabilitySig:mean 	-nan
scalar Network.dyn_peer[955] 	lookupHopsSig:mean 	-nan
scalar Network.dyn_peer[956] 	lookupTimeSig:mean 	-nan
scalar Network.dyn_peer[956] 	lookupStabilitySig:mean 	-nan
scalar Network.dyn_peer[956] 	lookupHopsSig:mean 	-nan
scalar Network.dyn_peer[957] 	lookupTimeSig:mean 	-nan
scalar Network.dyn_peer[957] 	lookupStabilitySig:mean 	-nan
scalar Network.dyn_peer[957] 	lookupHopsSig:mean 	-nan
scalar Network.dyn_peer[958] 	lookupTimeSig:mean 	-nan
scalar Network.dyn_peer[958] 	lookupStabilitySig:mean 	-nan
scalar Network.dyn_peer[958] 	lookupHopsSig:mean 	-nan
scalar Network.dyn_peer[959] 	lookupTimeSig:mean 	-nan
scalar Network.dyn_peer[959] 	lookupStabilitySig:mean 	-nan
scalar Network.dyn_peer[959] 	lookupHopsSig:mean 	-nan
scalar Network.dyn_peer[960] 	lookupTimeSig:mean 	-nan
scalar Network.dyn_peer[960] 	lookupStabilitySig:mean 	-nan
scalar Network.dyn_peer[960] 	lookupHopsSig:mean 	-nan
scalar Network.dyn_peer[961] 	lookupTimeSig:mean 	-nan
scalar Network.dyn_peer[961] 	lookupStabilitySig:mean 	-nan
scalar Network.dyn_peer[961] 	lookupHopsSig:mean 	-nan
scalar Network.dyn_peer[962] 	lookupTimeSig:mean 	-nan
scalar Network.dyn_peer[962] 	lookupStabilitySig:mean 	-nan
scalar Network.dyn_peer[962] 	lookupHopsSig:mean 	-nan
scalar Network.dyn_peer[963] 	lookupTimeSig:mean 	-nan
scalar Network.dyn_peer[963] 	lookupStabilitySig:mean 	-nan
scalar Network.dyn_peer[963] 	lookupHopsSig:mean 	-nan
scalar Network.dyn_peer[964] 	lookupTimeSig:mean 	-nan
scalar Network.dyn_peer[964] 	lookupStabilitySig:mean 	-nan
scalar Network.dyn_peer[964] 	lookupHopsSig:mean 	-nan
scalar Network.dyn_peer[965] 	lookupTimeSig:mean 	-nan
scalar Network.dyn_peer[965] 	lookupStabilitySig:mean 	-nan
scalar Network.dyn_peer[965] 	lookupHopsSig:mean 	-nan
scalar Network.dyn_peer[966] 	lookupTimeSig:mean 	-nan
scalar Network.dyn_peer[966] 	lookupStabilitySig:mean 	-nan
scalar Network.dyn_peer[966] 	lookupHopsSig:mean 	-nan
scalar Network.dyn_peer[967] 	lookupTimeSig:mean 	-nan
scalar Network.dyn_peer[967] 	lookupStabilitySig:mean 	-nan
scalar Network.dyn_peer[967] 	lookupHopsSig:mean 	-nan
scalar Network.dyn_peer[968] 	lookupTimeSig:mean 	-nan
scalar Network.dyn_peer[968] 	lookupStabilitySig:mean 	-nan
scalar Network.dyn_peer[968] 	lookupHopsSig:mean 	-nan
scalar Network.dyn_peer[969] 	lookupTimeSig:mean 	-nan
scalar Network.dyn_peer[969] 	lookupStabilitySig:mean 	-nan
scalar Network.dyn_peer[969] 	lookupHopsSig:mean 	-nan
scalar Network.dyn_peer[970] 	lookupTimeSig:mean 	-nan
scalar Network.dyn_peer[970] 	lookupStabilitySig:mean 	-nan
scalar Network.dyn_peer[970] 	lookupHopsSig:mean 	-nan
scalar Network.dyn_peer[971] 	lookupTimeSig:mean 	-nan
scalar Network.dyn_peer[971] 	lookupStabilitySig:mean 	-nan
scalar Network.dyn_peer[971] 	lookupHopsSig:mean 	-nan
scalar Network.dyn_peer[972] 	lookupTimeSig:mean 	-nan
scalar Network.dyn_peer[972] 	lookupStabilitySig:mean 	-nan
scalar Network.dyn_peer[972] 	lookupHopsSig:mean 	-nan
scalar Network.dyn_peer[973] 	lookupTimeSig:mean 	-nan
scalar Network.dyn_peer[973] 	lookupStabilitySig:mean 	-nan
scalar Network.dyn_peer[973] 	lookupHopsSig:mean 	-nan
scalar Network.dyn_peer[974] 	lookupTimeSig:mean 	-nan
scalar Network.dyn_peer[974] 	lookupStabilitySig:mean 	-nan
scalar Network.dyn_peer[974] 	lookupHopsSig:mean 	-nan
scalar Network.dyn_peer[975] 	lookupTimeSig:mean 	-nan
scalar Network.dyn_peer[975] 	lookupStabilitySig:mean 	-nan
scalar Network.dyn_peer[975] 	lookupHopsSig:mean 	-nan
scalar Network.dyn_peer[976] 	lookupTimeSig:mean 	-nan
scalar Network.dyn_peer[976] 	lookupStabilitySig:mean 	-nan
scalar Network.dyn_peer[976] 	lookupHopsSig:mean 	-nan
scalar Network.dyn_peer[977] 	lookupTimeSig:mean 	-nan
scalar Network.dyn_peer[977] 	lookupStabilitySig:mean 	-nan
scalar Network.dyn_peer[977] 	lookupHopsSig:mean 	-nan
scalar Network.dyn_peer[978] 	lookupTimeSig:mean 	-nan
scalar Network.dyn_peer[978] 	lookupStabilitySig:mean 	-nan
scalar Network.dyn_peer[978] 	lookupHopsSig:mean 	-nan
scalar Network.dyn_peer[979] 	lookupTimeSig:mean 	-nan
scalar Network.dyn_peer[979] 	lookupStabilitySig:mean 	-nan
scalar Network.dyn_peer[979] 	lookupHopsSig:mean 	-nan
scalar Network.dyn_peer[980] 	lookupTimeSig:mean 	-nan
scalar Network.dyn_peer[980] 	lookupStabilitySig:mean 	-nan
scalar Network.dyn_peer[980] 	lookupHopsSig:mean 	-nan
scalar Network.dyn_peer[981] 	lookupTimeSig:mean 	-nan
scalar Network.dyn_peer[981] 	lookupStabilitySig:mean 	-nan
scalar Network.dyn_peer[981] 	lookupHopsSig:mean 	-nan
scalar Network.dyn_peer[982] 	lookupTimeSig:mean 	-nan
scalar Network.dyn_peer[982] 	lookupStabilitySig:mean 	-nan
scalar Network.dyn_peer[982] 	lookupHopsSig:mean 	-nan
scalar Network.dyn_peer[983] 	lookupTimeSig:mean 	-nan
scalar Network.dyn_peer[983] 	lookupStabilitySig:mean 	-nan
scalar Network.dyn_peer[983] 	lookupHopsSig:mean 	-nan
scalar Network.dyn_peer[984] 	lookupTimeSig:mean 	-nan
scalar Network.dyn_peer[984] 	lookupStabilitySig:mean 	-nan
scalar Network.dyn_peer[984] 	lookupHopsSig:mean 	-nan
scalar Network.dyn_peer[985] 	lookupTimeSig:mean 	-nan
scalar Network.dyn_peer[985] 	lookupStabilitySig:mean 	-nan
scalar Network.dyn_peer[985] 	lookupHopsSig:mean 	-nan
scalar Network.dyn_peer[986] 	lookupTimeSig:mean 	-nan
scalar Network.dyn_peer[986] 	lookupStabilitySig:mean 	-nan
scalar Network.dyn_peer[986] 	lookupHopsSig:mean 	-nan
scalar Network.dyn_peer[987] 	lookupTimeSig:mean 	-nan
scalar Network.dyn_peer[987] 	lookupStabilitySig:mean 	-nan
scalar Network.dyn_peer[987] 	lookupHopsSig:mean 	-nan
scalar Network.dyn_peer[988] 	lookupTimeSig:mean 	-nan
scalar Network.dyn_peer[988] 	lookupStabilitySig:mean 	-nan
scalar Network.dyn_peer[988] 	lookupHopsSig:mean 	-nan
scalar Network.dyn_peer[989] 	lookupTimeSig:mean 	-nan
scalar Network.dyn_peer[989] 	lookupStabilitySig:mean 	-nan
scalar Network.dyn_peer[989] 	lookupHopsSig:mean 	-nan
scalar Network.dyn_peer[990] 	lookupTimeSig:mean 	-nan
scalar Network.dyn_peer[990] 	lookupStabilitySig:mean 	-nan
scalar Network.dyn_peer[990] 	lookupHopsSig:mean 	-nan
scalar Network.dyn_peer[991] 	lookupTimeSig:mean 	-nan
scalar Network.dyn_peer[991] 	lookupStabilitySig:mean 	-nan
scalar Network.dyn_peer[991] 	lookupHopsSig:mean 	-nan
scalar Network.dyn_peer[992] 	lookupTimeSig:mean 	-nan
scalar Network.dyn_peer[992] 	lookupStabilitySig:mean 	-nan
scalar Network.dyn_peer[992] 	lookupHopsSig:mean 	-nan
scalar Network.dyn_peer[993] 	lookupTimeSig:mean 	-nan
scalar Network.dyn_peer[993] 	lookupStabilitySig:mean 	-nan
scalar Network.dyn_peer[993] 	lookupHopsSig:mean 	-nan
scalar Network.dyn_peer[994] 	lookupTimeSig:mean 	-nan
scalar Network.dyn_peer[994] 	lookupStabilitySig:mean 	-nan
scalar Network.dyn_peer[994] 	lookupHopsSig:mean 	-nan
scalar Network.dyn_peer[995] 	lookupTimeSig:mean 	-nan
scalar Network.dyn_peer[995] 	lookupStabilitySig:mean 	-nan
scalar Network.dyn_peer[995] 	lookupHopsSig:mean 	-nan
scalar Network.dyn_peer[996] 	lookupTimeSig:mean 	-nan
scalar Network.dyn_peer[996] 	lookupStabilitySig:mean 	-nan
scalar Network.dyn_peer[996] 	lookupHopsSig:mean 	-nan
scalar Network.dyn_peer[997] 	lookupTimeSig:mean 	-nan
scalar Network.dyn_peer[997] 	lookupStabilitySig:mean 	-nan
scalar Network.dyn_peer[997] 	lookupHopsSig:mean 	-nan
scalar Network.dyn_peer[998] 	lookupTimeSig:mean 	-nan
scalar Network.dyn_peer[998] 	lookupStabilitySig:mean 	-nan
scalar Network.dyn_peer[998] 	lookupHopsSig:mean 	-nan
scalar Network.dyn_peer[999] 	lookupTimeSig:mean 	-nan
scalar Network.dyn_peer[999] 	lookupStabilitySig:mean 	-nan
scalar Network.dyn_peer[999] 	lookupHopsSig:mean 	-nan
scalar Network.churner 	inGoingSizeSig:mean 	249.00199600798
