version 2
run Stability2-265-20130526-00:53:27-26640
attr configname Stability2
attr datetime 20130526-00:53:27
attr experiment Stability2
attr inifile omnetpp.ini
attr iterationvars $0=400
attr iterationvars2 "$0=400, $repetition=25"
attr measurement $0=400
attr network Network
attr processid 26640
attr repetition 25
attr replication #25
attr resultdir results
attr runnumber 265
attr seedset 265

scalar Network.dyn_peer[0] 	lookupTimeSig:mean 	0.975
scalar Network.dyn_peer[0] 	lookupStabilitySig:mean 	0.40641333907843
scalar Network.dyn_peer[0] 	lookupHopsSig:mean 	9
scalar Network.dyn_peer[1] 	lookupTimeSig:mean 	0.65
scalar Network.dyn_peer[1] 	lookupStabilitySig:mean 	0.45454543828964
scalar Network.dyn_peer[1] 	lookupHopsSig:mean 	6
scalar Network.dyn_peer[2] 	lookupTimeSig:mean 	0.93333333333333
scalar Network.dyn_peer[2] 	lookupStabilitySig:mean 	0.74805677620073
scalar Network.dyn_peer[2] 	lookupHopsSig:mean 	8.5
scalar Network.dyn_peer[3] 	lookupTimeSig:mean 	1.35
scalar Network.dyn_peer[3] 	lookupStabilitySig:mean 	0.59641147591174
scalar Network.dyn_peer[3] 	lookupHopsSig:mean 	12.75
scalar Network.dyn_peer[4] 	lookupTimeSig:mean 	1.2
scalar Network.dyn_peer[4] 	lookupStabilitySig:mean 	0.72116402536631
scalar Network.dyn_peer[4] 	lookupHopsSig:mean 	11.333333333333
scalar Network.dyn_peer[5] 	lookupTimeSig:mean 	1.05
scalar Network.dyn_peer[5] 	lookupStabilitySig:mean 	0.37223752960563
scalar Network.dyn_peer[5] 	lookupHopsSig:mean 	9.75
scalar Network.dyn_peer[6] 	lookupTimeSig:mean 	1.375
scalar Network.dyn_peer[6] 	lookupStabilitySig:mean 	0.50991343986243
scalar Network.dyn_peer[6] 	lookupHopsSig:mean 	13
scalar Network.dyn_peer[7] 	lookupTimeSig:mean 	0.55
scalar Network.dyn_peer[7] 	lookupStabilitySig:mean 	0.53888887912035
scalar Network.dyn_peer[7] 	lookupHopsSig:mean 	4.75
scalar Network.dyn_peer[8] 	lookupTimeSig:mean 	0.98333333333333
scalar Network.dyn_peer[8] 	lookupStabilitySig:mean 	0.68161311745644
scalar Network.dyn_peer[8] 	lookupHopsSig:mean 	9
scalar Network.dyn_peer[9] 	lookupTimeSig:mean 	1
scalar Network.dyn_peer[9] 	lookupStabilitySig:mean 	0.67132830021105
scalar Network.dyn_peer[9] 	lookupHopsSig:mean 	9.1428571428571
scalar Network.dyn_peer[10] 	lookupTimeSig:mean 	1.28
scalar Network.dyn_peer[10] 	lookupStabilitySig:mean 	0.73162660598755
scalar Network.dyn_peer[10] 	lookupHopsSig:mean 	12
scalar Network.dyn_peer[11] 	lookupTimeSig:mean 	0.9
scalar Network.dyn_peer[11] 	lookupStabilitySig:mean 	0.48056114688516
scalar Network.dyn_peer[11] 	lookupHopsSig:mean 	8.2
scalar Network.dyn_peer[12] 	lookupTimeSig:mean 	0.8875
scalar Network.dyn_peer[12] 	lookupStabilitySig:mean 	0.76337956637144
scalar Network.dyn_peer[12] 	lookupHopsSig:mean 	8
scalar Network.dyn_peer[13] 	lookupTimeSig:mean 	0.75
scalar Network.dyn_peer[13] 	lookupStabilitySig:mean 	0.030769228935242
scalar Network.dyn_peer[13] 	lookupHopsSig:mean 	7
scalar Network.dyn_peer[14] 	lookupTimeSig:mean 	1.6333333333333
scalar Network.dyn_peer[14] 	lookupStabilitySig:mean 	0.83483337083211
scalar Network.dyn_peer[14] 	lookupHopsSig:mean 	15.5
scalar Network.dyn_peer[15] 	lookupTimeSig:mean 	1.3666666666667
scalar Network.dyn_peer[15] 	lookupStabilitySig:mean 	0.34924241900444
scalar Network.dyn_peer[15] 	lookupHopsSig:mean 	13
scalar Network.dyn_peer[16] 	lookupTimeSig:mean 	0.875
scalar Network.dyn_peer[16] 	lookupStabilitySig:mean 	0.41048385947943
scalar Network.dyn_peer[16] 	lookupHopsSig:mean 	8
scalar Network.dyn_peer[17] 	lookupTimeSig:mean 	1.5
scalar Network.dyn_peer[17] 	lookupStabilitySig:mean 	0.36685980359713
scalar Network.dyn_peer[17] 	lookupHopsSig:mean 	14.333333333333
scalar Network.dyn_peer[18] 	lookupTimeSig:mean 	1.0666666666667
scalar Network.dyn_peer[18] 	lookupStabilitySig:mean 	0.26455025374889
scalar Network.dyn_peer[18] 	lookupHopsSig:mean 	10
scalar Network.dyn_peer[19] 	lookupTimeSig:mean 	1.35
scalar Network.dyn_peer[19] 	lookupStabilitySig:mean 	0.68208161741495
scalar Network.dyn_peer[19] 	lookupHopsSig:mean 	12.666666666667
scalar Network.dyn_peer[20] 	lookupTimeSig:mean 	1.04
scalar Network.dyn_peer[20] 	lookupStabilitySig:mean 	0.55896333605051
scalar Network.dyn_peer[20] 	lookupHopsSig:mean 	9.6
scalar Network.dyn_peer[21] 	lookupTimeSig:mean 	1.2714285714286
scalar Network.dyn_peer[21] 	lookupStabilitySig:mean 	0.81896937904613
scalar Network.dyn_peer[21] 	lookupHopsSig:mean 	11.857142857143
scalar Network.dyn_peer[22] 	lookupTimeSig:mean 	1.3466666666667
scalar Network.dyn_peer[22] 	lookupStabilitySig:mean 	0.95392181159308
scalar Network.dyn_peer[22] 	lookupHopsSig:mean 	12.533333333333
scalar Network.dyn_peer[23] 	lookupTimeSig:mean 	1.1
scalar Network.dyn_peer[23] 	lookupStabilitySig:mean 	0.5426513873972
scalar Network.dyn_peer[23] 	lookupHopsSig:mean 	10.25
scalar Network.dyn_peer[24] 	lookupTimeSig:mean 	0.85
scalar Network.dyn_peer[24] 	lookupStabilitySig:mean 	-0.085714310407639
scalar Network.dyn_peer[24] 	lookupHopsSig:mean 	8
scalar Network.dyn_peer[25] 	lookupTimeSig:mean 	0.95
scalar Network.dyn_peer[25] 	lookupStabilitySig:mean 	-0.0055555403232574
scalar Network.dyn_peer[25] 	lookupHopsSig:mean 	9
scalar Network.dyn_peer[26] 	lookupTimeSig:mean 	1.0857142857143
scalar Network.dyn_peer[26] 	lookupStabilitySig:mean 	0.77996684690671
scalar Network.dyn_peer[26] 	lookupHopsSig:mean 	10
scalar Network.dyn_peer[27] 	lookupTimeSig:mean 	1.45
scalar Network.dyn_peer[27] 	lookupStabilitySig:mean 	0.57770908251405
scalar Network.dyn_peer[27] 	lookupHopsSig:mean 	13.75
scalar Network.dyn_peer[28] 	lookupTimeSig:mean 	1.0545454545455
scalar Network.dyn_peer[28] 	lookupStabilitySig:mean 	0.78648241118274
scalar Network.dyn_peer[28] 	lookupHopsSig:mean 	9.6363636363636
scalar Network.dyn_peer[29] 	lookupTimeSig:mean 	1.4666666666667
scalar Network.dyn_peer[29] 	lookupStabilitySig:mean 	0.64865004767974
scalar Network.dyn_peer[29] 	lookupHopsSig:mean 	14
scalar Network.dyn_peer[30] 	lookupTimeSig:mean 	1.6166666666667
scalar Network.dyn_peer[30] 	lookupStabilitySig:mean 	0.9067491920044
scalar Network.dyn_peer[30] 	lookupHopsSig:mean 	15.333333333333
scalar Network.dyn_peer[31] 	lookupTimeSig:mean 	0.73333333333333
scalar Network.dyn_peer[31] 	lookupStabilitySig:mean 	0.13263401264946
scalar Network.dyn_peer[31] 	lookupHopsSig:mean 	6.6666666666667
scalar Network.dyn_peer[32] 	lookupTimeSig:mean 	1.6
scalar Network.dyn_peer[32] 	lookupStabilitySig:mean 	0.63585877480606
scalar Network.dyn_peer[32] 	lookupHopsSig:mean 	15.166666666667
scalar Network.dyn_peer[33] 	lookupTimeSig:mean 	0.51666666666667
scalar Network.dyn_peer[33] 	lookupStabilitySig:mean 	0.64226143310467
scalar Network.dyn_peer[33] 	lookupHopsSig:mean 	4.3333333333333
scalar Network.dyn_peer[34] 	lookupTimeSig:mean 	0.86
scalar Network.dyn_peer[34] 	lookupStabilitySig:mean 	0.73991894163191
scalar Network.dyn_peer[34] 	lookupHopsSig:mean 	7.8
scalar Network.dyn_peer[35] 	lookupTimeSig:mean 	1.35
scalar Network.dyn_peer[35] 	lookupStabilitySig:mean 	0.66604605875909
scalar Network.dyn_peer[35] 	lookupHopsSig:mean 	12.75
scalar Network.dyn_peer[36] 	lookupTimeSig:mean 	0.98888888888889
scalar Network.dyn_peer[36] 	lookupStabilitySig:mean 	0.83910353243765
scalar Network.dyn_peer[36] 	lookupHopsSig:mean 	9
scalar Network.dyn_peer[37] 	lookupTimeSig:mean 	0.98333333333333
scalar Network.dyn_peer[37] 	lookupStabilitySig:mean 	0.54635046888143
scalar Network.dyn_peer[37] 	lookupHopsSig:mean 	9
scalar Network.dyn_peer[38] 	lookupTimeSig:mean 	1.2333333333333
scalar Network.dyn_peer[38] 	lookupStabilitySig:mean 	0.51780821879705
scalar Network.dyn_peer[38] 	lookupHopsSig:mean 	11.666666666667
scalar Network.dyn_peer[39] 	lookupTimeSig:mean 	1.75
scalar Network.dyn_peer[39] 	lookupStabilitySig:mean 	0.69859227538109
scalar Network.dyn_peer[39] 	lookupHopsSig:mean 	16.75
scalar Network.dyn_peer[40] 	lookupTimeSig:mean 	1.23
scalar Network.dyn_peer[40] 	lookupStabilitySig:mean 	0.86135106943548
scalar Network.dyn_peer[40] 	lookupHopsSig:mean 	11.4
scalar Network.dyn_peer[41] 	lookupTimeSig:mean 	1.1111111111111
scalar Network.dyn_peer[41] 	lookupStabilitySig:mean 	0.81582304173046
scalar Network.dyn_peer[41] 	lookupHopsSig:mean 	10.222222222222
scalar Network.dyn_peer[42] 	lookupTimeSig:mean 	1.2333333333333
scalar Network.dyn_peer[42] 	lookupStabilitySig:mean 	0.57342341542244
scalar Network.dyn_peer[42] 	lookupHopsSig:mean 	11.666666666667
scalar Network.dyn_peer[43] 	lookupTimeSig:mean 	1.1666666666667
scalar Network.dyn_peer[43] 	lookupStabilitySig:mean 	0.47595907002687
scalar Network.dyn_peer[43] 	lookupHopsSig:mean 	11
scalar Network.dyn_peer[44] 	lookupTimeSig:mean 	1.875
scalar Network.dyn_peer[44] 	lookupStabilitySig:mean 	0.33241894841194
scalar Network.dyn_peer[44] 	lookupHopsSig:mean 	18
scalar Network.dyn_peer[45] 	lookupTimeSig:mean 	0.9
scalar Network.dyn_peer[45] 	lookupStabilitySig:mean 	0.49013692140579
scalar Network.dyn_peer[45] 	lookupHopsSig:mean 	8.25
scalar Network.dyn_peer[46] 	lookupTimeSig:mean 	1.7666666666667
scalar Network.dyn_peer[46] 	lookupStabilitySig:mean 	0.75942460695903
scalar Network.dyn_peer[46] 	lookupHopsSig:mean 	17
scalar Network.dyn_peer[47] 	lookupTimeSig:mean 	1.0625
scalar Network.dyn_peer[47] 	lookupStabilitySig:mean 	0.81312724668533
scalar Network.dyn_peer[47] 	lookupHopsSig:mean 	9.75
scalar Network.dyn_peer[48] 	lookupTimeSig:mean 	2.8333333333333
scalar Network.dyn_peer[48] 	lookupStabilitySig:mean 	0.75929914414883
scalar Network.dyn_peer[48] 	lookupHopsSig:mean 	27.666666666667
scalar Network.dyn_peer[49] 	lookupTimeSig:mean 	1.5
scalar Network.dyn_peer[49] 	lookupStabilitySig:mean 	0.92945086290794
scalar Network.dyn_peer[49] 	lookupHopsSig:mean 	14.142857142857
scalar Network.dyn_peer[50] 	lookupTimeSig:mean 	1.3166666666667
scalar Network.dyn_peer[50] 	lookupStabilitySig:mean 	0.6667835166057
scalar Network.dyn_peer[50] 	lookupHopsSig:mean 	12.333333333333
scalar Network.dyn_peer[51] 	lookupTimeSig:mean 	0.98
scalar Network.dyn_peer[51] 	lookupStabilitySig:mean 	0.54210679456592
scalar Network.dyn_peer[51] 	lookupHopsSig:mean 	9
scalar Network.dyn_peer[52] 	lookupTimeSig:mean 	1.225
scalar Network.dyn_peer[52] 	lookupStabilitySig:mean 	0.44075091928244
scalar Network.dyn_peer[52] 	lookupHopsSig:mean 	11.5
scalar Network.dyn_peer[53] 	lookupTimeSig:mean 	1.075
scalar Network.dyn_peer[53] 	lookupStabilitySig:mean 	0.4777091704309
scalar Network.dyn_peer[53] 	lookupHopsSig:mean 	10
scalar Network.dyn_peer[54] 	lookupTimeSig:mean 	1.4333333333333
scalar Network.dyn_peer[54] 	lookupStabilitySig:mean 	0.58777776857217
scalar Network.dyn_peer[54] 	lookupHopsSig:mean 	13.666666666667
scalar Network.dyn_peer[55] 	lookupTimeSig:mean 	0.925
scalar Network.dyn_peer[55] 	lookupStabilitySig:mean 	0.42192583251745
scalar Network.dyn_peer[55] 	lookupHopsSig:mean 	8.5
scalar Network.dyn_peer[56] 	lookupTimeSig:mean 	0.9
scalar Network.dyn_peer[56] 	lookupStabilitySig:mean 	0.43700981512666
scalar Network.dyn_peer[56] 	lookupHopsSig:mean 	8.25
scalar Network.dyn_peer[57] 	lookupTimeSig:mean 	1.3
scalar Network.dyn_peer[57] 	lookupStabilitySig:mean 	0.60359987430274
scalar Network.dyn_peer[57] 	lookupHopsSig:mean 	12.25
scalar Network.dyn_peer[58] 	lookupTimeSig:mean 	0.9
scalar Network.dyn_peer[58] 	lookupStabilitySig:mean 	0.80223661235401
scalar Network.dyn_peer[58] 	lookupHopsSig:mean 	8.1428571428571
scalar Network.dyn_peer[59] 	lookupTimeSig:mean 	0.70909090909091
scalar Network.dyn_peer[59] 	lookupStabilitySig:mean 	0.89951149336147
scalar Network.dyn_peer[59] 	lookupHopsSig:mean 	6.1818181818182
scalar Network.dyn_peer[60] 	lookupTimeSig:mean 	1.25
scalar Network.dyn_peer[60] 	lookupStabilitySig:mean 	0.59125820733607
scalar Network.dyn_peer[60] 	lookupHopsSig:mean 	11.75
scalar Network.dyn_peer[61] 	lookupTimeSig:mean 	1.85
scalar Network.dyn_peer[61] 	lookupStabilitySig:mean 	0.41971897613257
scalar Network.dyn_peer[61] 	lookupHopsSig:mean 	17.75
scalar Network.dyn_peer[62] 	lookupTimeSig:mean 	1.44
scalar Network.dyn_peer[62] 	lookupStabilitySig:mean 	0.75827869698405
scalar Network.dyn_peer[62] 	lookupHopsSig:mean 	13.6
scalar Network.dyn_peer[63] 	lookupTimeSig:mean 	1.3
scalar Network.dyn_peer[63] 	lookupStabilitySig:mean 	0.39301949052606
scalar Network.dyn_peer[63] 	lookupHopsSig:mean 	12.25
scalar Network.dyn_peer[64] 	lookupTimeSig:mean 	0.76666666666667
scalar Network.dyn_peer[64] 	lookupStabilitySig:mean 	0.53458723674218
scalar Network.dyn_peer[64] 	lookupHopsSig:mean 	7
scalar Network.dyn_peer[65] 	lookupTimeSig:mean 	0.75
scalar Network.dyn_peer[65] 	lookupStabilitySig:mean 	0.43462731689215
scalar Network.dyn_peer[65] 	lookupHopsSig:mean 	6.75
scalar Network.dyn_peer[66] 	lookupTimeSig:mean 	1.7
scalar Network.dyn_peer[66] 	lookupStabilitySig:mean 	0.64920634031296
scalar Network.dyn_peer[66] 	lookupHopsSig:mean 	16.333333333333
scalar Network.dyn_peer[67] 	lookupTimeSig:mean 	0.6
scalar Network.dyn_peer[67] 	lookupStabilitySig:mean 	0.41316526879867
scalar Network.dyn_peer[67] 	lookupHopsSig:mean 	5.3333333333333
scalar Network.dyn_peer[68] 	lookupTimeSig:mean 	1.175
scalar Network.dyn_peer[68] 	lookupStabilitySig:mean 	0.86714620800922
scalar Network.dyn_peer[68] 	lookupHopsSig:mean 	10.875
scalar Network.dyn_peer[69] 	lookupTimeSig:mean 	1.0888888888889
scalar Network.dyn_peer[69] 	lookupStabilitySig:mean 	0.89898181334138
scalar Network.dyn_peer[69] 	lookupHopsSig:mean 	10
scalar Network.dyn_peer[70] 	lookupTimeSig:mean 	1.1
scalar Network.dyn_peer[70] 	lookupStabilitySig:mean 	0.73336455370817
scalar Network.dyn_peer[70] 	lookupHopsSig:mean 	10.111111111111
scalar Network.dyn_peer[71] 	lookupTimeSig:mean 	0.83636363636364
scalar Network.dyn_peer[71] 	lookupStabilitySig:mean 	0.83273755331439
scalar Network.dyn_peer[71] 	lookupHopsSig:mean 	7.4545454545455
scalar Network.dyn_peer[72] 	lookupTimeSig:mean 	1.1428571428571
scalar Network.dyn_peer[72] 	lookupStabilitySig:mean 	0.87498794682324
scalar Network.dyn_peer[72] 	lookupHopsSig:mean 	10.571428571429
scalar Network.dyn_peer[73] 	lookupTimeSig:mean 	1.125
scalar Network.dyn_peer[73] 	lookupStabilitySig:mean 	0.56298448890448
scalar Network.dyn_peer[73] 	lookupHopsSig:mean 	10.5
scalar Network.dyn_peer[74] 	lookupTimeSig:mean 	1.1
scalar Network.dyn_peer[74] 	lookupStabilitySig:mean 	0.76876758717533
scalar Network.dyn_peer[74] 	lookupHopsSig:mean 	10.142857142857
scalar Network.dyn_peer[75] 	lookupTimeSig:mean 	1.6666666666667
scalar Network.dyn_peer[75] 	lookupStabilitySig:mean 	0.17216749240955
scalar Network.dyn_peer[75] 	lookupHopsSig:mean 	16
scalar Network.dyn_peer[76] 	lookupTimeSig:mean 	1.12
scalar Network.dyn_peer[76] 	lookupStabilitySig:mean 	0.52153871804476
scalar Network.dyn_peer[76] 	lookupHopsSig:mean 	10.4
scalar Network.dyn_peer[77] 	lookupTimeSig:mean 	1.475
scalar Network.dyn_peer[77] 	lookupStabilitySig:mean 	0.51346169831231
scalar Network.dyn_peer[77] 	lookupHopsSig:mean 	14
scalar Network.dyn_peer[78] 	lookupTimeSig:mean 	1.15
scalar Network.dyn_peer[78] 	lookupStabilitySig:mean 	0.73977899132296
scalar Network.dyn_peer[78] 	lookupHopsSig:mean 	10.75
scalar Network.dyn_peer[79] 	lookupTimeSig:mean 	1.4833333333333
scalar Network.dyn_peer[79] 	lookupStabilitySig:mean 	0.74300704772274
scalar Network.dyn_peer[79] 	lookupHopsSig:mean 	14
scalar Network.dyn_peer[80] 	lookupTimeSig:mean 	1.08
scalar Network.dyn_peer[80] 	lookupStabilitySig:mean 	0.85865026339889
scalar Network.dyn_peer[80] 	lookupHopsSig:mean 	9.9
scalar Network.dyn_peer[81] 	lookupTimeSig:mean 	1.45
scalar Network.dyn_peer[81] 	lookupStabilitySig:mean 	0.47916666418314
scalar Network.dyn_peer[81] 	lookupHopsSig:mean 	14
scalar Network.dyn_peer[82] 	lookupTimeSig:mean 	0.96666666666667
scalar Network.dyn_peer[82] 	lookupStabilitySig:mean 	0.43492062886556
scalar Network.dyn_peer[82] 	lookupHopsSig:mean 	9
scalar Network.dyn_peer[83] 	lookupTimeSig:mean 	0.93333333333333
scalar Network.dyn_peer[83] 	lookupStabilitySig:mean 	0.75686098386844
scalar Network.dyn_peer[83] 	lookupHopsSig:mean 	8.5
scalar Network.dyn_peer[84] 	lookupTimeSig:mean 	1.175
scalar Network.dyn_peer[84] 	lookupStabilitySig:mean 	0.52274698764086
scalar Network.dyn_peer[84] 	lookupHopsSig:mean 	11
scalar Network.dyn_peer[85] 	lookupTimeSig:mean 	1.3
scalar Network.dyn_peer[85] 	lookupStabilitySig:mean 	0.62002262752503
scalar Network.dyn_peer[85] 	lookupHopsSig:mean 	12.25
scalar Network.dyn_peer[86] 	lookupTimeSig:mean 	1.8333333333333
scalar Network.dyn_peer[86] 	lookupStabilitySig:mean 	0.20666667819023
scalar Network.dyn_peer[86] 	lookupHopsSig:mean 	17.666666666667
scalar Network.dyn_peer[87] 	lookupTimeSig:mean 	1.02
scalar Network.dyn_peer[87] 	lookupStabilitySig:mean 	0.5505462013185
scalar Network.dyn_peer[87] 	lookupHopsSig:mean 	9.4
scalar Network.dyn_peer[88] 	lookupTimeSig:mean 	2.3
scalar Network.dyn_peer[88] 	lookupStabilitySig:mean 	0.41354452321927
scalar Network.dyn_peer[88] 	lookupHopsSig:mean 	22.333333333333
scalar Network.dyn_peer[89] 	lookupTimeSig:mean 	1.56
scalar Network.dyn_peer[89] 	lookupStabilitySig:mean 	0.55634061098099
scalar Network.dyn_peer[89] 	lookupHopsSig:mean 	14.8
scalar Network.dyn_peer[90] 	lookupTimeSig:mean 	2.7
scalar Network.dyn_peer[90] 	lookupStabilitySig:mean 	0.6729867644608
scalar Network.dyn_peer[90] 	lookupHopsSig:mean 	26.333333333333
scalar Network.dyn_peer[91] 	lookupTimeSig:mean 	0.65
scalar Network.dyn_peer[91] 	lookupStabilitySig:mean 	0.55656813830137
scalar Network.dyn_peer[91] 	lookupHopsSig:mean 	5.75
scalar Network.dyn_peer[92] 	lookupTimeSig:mean 	0.68571428571429
scalar Network.dyn_peer[92] 	lookupStabilitySig:mean 	0.66854514633971
scalar Network.dyn_peer[92] 	lookupHopsSig:mean 	6
scalar Network.dyn_peer[93] 	lookupTimeSig:mean 	1.05
scalar Network.dyn_peer[93] 	lookupStabilitySig:mean 	0.88886475464096
scalar Network.dyn_peer[93] 	lookupHopsSig:mean 	9.625
scalar Network.dyn_peer[94] 	lookupTimeSig:mean 	1.3625
scalar Network.dyn_peer[94] 	lookupStabilitySig:mean 	0.9411280596396
scalar Network.dyn_peer[94] 	lookupHopsSig:mean 	12.75
scalar Network.dyn_peer[95] 	lookupTimeSig:mean 	1.4
scalar Network.dyn_peer[95] 	lookupStabilitySig:mean 	0.91865447117016
scalar Network.dyn_peer[95] 	lookupHopsSig:mean 	13.125
scalar Network.dyn_peer[96] 	lookupTimeSig:mean 	1.275
scalar Network.dyn_peer[96] 	lookupStabilitySig:mean 	0.42955191060901
scalar Network.dyn_peer[96] 	lookupHopsSig:mean 	12
scalar Network.dyn_peer[97] 	lookupTimeSig:mean 	1.2166666666667
scalar Network.dyn_peer[97] 	lookupStabilitySig:mean 	0.66270524139206
scalar Network.dyn_peer[97] 	lookupHopsSig:mean 	11.333333333333
scalar Network.dyn_peer[98] 	lookupTimeSig:mean 	1.0857142857143
scalar Network.dyn_peer[98] 	lookupStabilitySig:mean 	0.77776617423764
scalar Network.dyn_peer[98] 	lookupHopsSig:mean 	10
scalar Network.dyn_peer[99] 	lookupTimeSig:mean 	1.775
scalar Network.dyn_peer[99] 	lookupStabilitySig:mean 	0.85680062836036
scalar Network.dyn_peer[99] 	lookupHopsSig:mean 	16.875
scalar Network.dyn_peer[100] 	lookupTimeSig:mean 	1.525
scalar Network.dyn_peer[100] 	lookupStabilitySig:mean 	0.76361979078501
scalar Network.dyn_peer[100] 	lookupHopsSig:mean 	14.5
scalar Network.dyn_peer[101] 	lookupTimeSig:mean 	1.875
scalar Network.dyn_peer[101] 	lookupStabilitySig:mean 	0.75041501969099
scalar Network.dyn_peer[101] 	lookupHopsSig:mean 	18
scalar Network.dyn_peer[102] 	lookupTimeSig:mean 	1.9
scalar Network.dyn_peer[102] 	lookupStabilitySig:mean 	0.61588916555047
scalar Network.dyn_peer[102] 	lookupHopsSig:mean 	18.25
scalar Network.dyn_peer[103] 	lookupTimeSig:mean 	1.45
scalar Network.dyn_peer[103] 	lookupStabilitySig:mean 	-0.027272745966911
scalar Network.dyn_peer[103] 	lookupHopsSig:mean 	14
scalar Network.dyn_peer[104] 	lookupTimeSig:mean 	1.0333333333333
scalar Network.dyn_peer[104] 	lookupStabilitySig:mean 	0.50207568456729
scalar Network.dyn_peer[104] 	lookupHopsSig:mean 	9.6666666666667
scalar Network.dyn_peer[105] 	lookupTimeSig:mean 	0.92857142857143
scalar Network.dyn_peer[105] 	lookupStabilitySig:mean 	0.70255312110697
scalar Network.dyn_peer[105] 	lookupHopsSig:mean 	8.4285714285714
scalar Network.dyn_peer[106] 	lookupTimeSig:mean 	0.85
scalar Network.dyn_peer[106] 	lookupStabilitySig:mean 	0.60041378438473
scalar Network.dyn_peer[106] 	lookupHopsSig:mean 	7.75
scalar Network.dyn_peer[107] 	lookupTimeSig:mean 	0.95
scalar Network.dyn_peer[107] 	lookupStabilitySig:mean 	0.65239954087883
scalar Network.dyn_peer[107] 	lookupHopsSig:mean 	8.75
scalar Network.dyn_peer[108] 	lookupTimeSig:mean 	1.8
scalar Network.dyn_peer[108] 	lookupStabilitySig:mean 	0.29166667163372
scalar Network.dyn_peer[108] 	lookupHopsSig:mean 	17.5
scalar Network.dyn_peer[109] 	lookupTimeSig:mean 	0.56
scalar Network.dyn_peer[109] 	lookupStabilitySig:mean 	0.52553900629282
scalar Network.dyn_peer[109] 	lookupHopsSig:mean 	4.8
scalar Network.dyn_peer[110] 	lookupTimeSig:mean 	2
scalar Network.dyn_peer[110] 	lookupStabilitySig:mean 	0.73492552014068
scalar Network.dyn_peer[110] 	lookupHopsSig:mean 	19.25
scalar Network.dyn_peer[111] 	lookupTimeSig:mean 	1.4666666666667
scalar Network.dyn_peer[111] 	lookupStabilitySig:mean 	0.75125154666603
scalar Network.dyn_peer[111] 	lookupHopsSig:mean 	13.833333333333
scalar Network.dyn_peer[112] 	lookupTimeSig:mean 	3.7
scalar Network.dyn_peer[112] 	lookupStabilitySig:mean 	0.75922890752554
scalar Network.dyn_peer[112] 	lookupHopsSig:mean 	36.5
scalar Network.dyn_peer[113] 	lookupTimeSig:mean 	1.7
scalar Network.dyn_peer[113] 	lookupStabilitySig:mean 	0.083333343267441
scalar Network.dyn_peer[113] 	lookupHopsSig:mean 	16.5
scalar Network.dyn_peer[114] 	lookupTimeSig:mean 	1.16
scalar Network.dyn_peer[114] 	lookupStabilitySig:mean 	0.64573320895433
scalar Network.dyn_peer[114] 	lookupHopsSig:mean 	10.8
scalar Network.dyn_peer[115] 	lookupTimeSig:mean 	1.175
scalar Network.dyn_peer[115] 	lookupStabilitySig:mean 	0.6521065775305
scalar Network.dyn_peer[115] 	lookupHopsSig:mean 	11
scalar Network.dyn_peer[116] 	lookupTimeSig:mean 	1.2666666666667
scalar Network.dyn_peer[116] 	lookupStabilitySig:mean 	0.25626575946808
scalar Network.dyn_peer[116] 	lookupHopsSig:mean 	12
scalar Network.dyn_peer[117] 	lookupTimeSig:mean 	1.15
scalar Network.dyn_peer[117] 	lookupStabilitySig:mean 	0.7490559509024
scalar Network.dyn_peer[117] 	lookupHopsSig:mean 	10.75
scalar Network.dyn_peer[118] 	lookupTimeSig:mean 	1.2666666666667
scalar Network.dyn_peer[118] 	lookupStabilitySig:mean 	0.72285829670727
scalar Network.dyn_peer[118] 	lookupHopsSig:mean 	11.833333333333
scalar Network.dyn_peer[119] 	lookupTimeSig:mean 	1.925
scalar Network.dyn_peer[119] 	lookupStabilitySig:mean 	0.68425550125539
scalar Network.dyn_peer[119] 	lookupHopsSig:mean 	18.5
scalar Network.dyn_peer[120] 	lookupTimeSig:mean 	0.93333333333333
scalar Network.dyn_peer[120] 	lookupStabilitySig:mean 	0.75274175374458
scalar Network.dyn_peer[120] 	lookupHopsSig:mean 	8.5
scalar Network.dyn_peer[121] 	lookupTimeSig:mean 	1.475
scalar Network.dyn_peer[121] 	lookupStabilitySig:mean 	0.77133700717241
scalar Network.dyn_peer[121] 	lookupHopsSig:mean 	14
scalar Network.dyn_peer[122] 	lookupTimeSig:mean 	0.95714285714286
scalar Network.dyn_peer[122] 	lookupStabilitySig:mean 	0.61358433615948
scalar Network.dyn_peer[122] 	lookupHopsSig:mean 	8.7142857142857
scalar Network.dyn_peer[123] 	lookupTimeSig:mean 	1.1545454545455
scalar Network.dyn_peer[123] 	lookupStabilitySig:mean 	0.90528369754214
scalar Network.dyn_peer[123] 	lookupHopsSig:mean 	10.636363636364
scalar Network.dyn_peer[124] 	lookupTimeSig:mean 	0.98
scalar Network.dyn_peer[124] 	lookupStabilitySig:mean 	0.68303823545575
scalar Network.dyn_peer[124] 	lookupHopsSig:mean 	9
scalar Network.dyn_peer[125] 	lookupTimeSig:mean 	1.26
scalar Network.dyn_peer[125] 	lookupStabilitySig:mean 	0.84560418725014
scalar Network.dyn_peer[125] 	lookupHopsSig:mean 	11.8
scalar Network.dyn_peer[126] 	lookupTimeSig:mean 	1.5666666666667
scalar Network.dyn_peer[126] 	lookupStabilitySig:mean 	0.39058893422286
scalar Network.dyn_peer[126] 	lookupHopsSig:mean 	15
scalar Network.dyn_peer[127] 	lookupTimeSig:mean 	1.0875
scalar Network.dyn_peer[127] 	lookupStabilitySig:mean 	0.83712011086755
scalar Network.dyn_peer[127] 	lookupHopsSig:mean 	10
scalar Network.dyn_peer[128] 	lookupTimeSig:mean 	2.3
scalar Network.dyn_peer[128] 	lookupStabilitySig:mean 	0.40971426665783
scalar Network.dyn_peer[128] 	lookupHopsSig:mean 	22.333333333333
scalar Network.dyn_peer[129] 	lookupTimeSig:mean 	1.5
scalar Network.dyn_peer[129] 	lookupStabilitySig:mean 	0.68365489272401
scalar Network.dyn_peer[129] 	lookupHopsSig:mean 	14.25
scalar Network.dyn_peer[130] 	lookupTimeSig:mean 	1.46
scalar Network.dyn_peer[130] 	lookupStabilitySig:mean 	0.88450367562473
scalar Network.dyn_peer[130] 	lookupHopsSig:mean 	13.8
scalar Network.dyn_peer[131] 	lookupTimeSig:mean 	1.05
scalar Network.dyn_peer[131] 	lookupStabilitySig:mean 	0.71490677818656
scalar Network.dyn_peer[131] 	lookupHopsSig:mean 	9.75
scalar Network.dyn_peer[132] 	lookupTimeSig:mean 	2.4666666666667
scalar Network.dyn_peer[132] 	lookupStabilitySig:mean 	0.592725182573
scalar Network.dyn_peer[132] 	lookupHopsSig:mean 	24
scalar Network.dyn_peer[133] 	lookupTimeSig:mean 	1
scalar Network.dyn_peer[133] 	lookupStabilitySig:mean 	0.63474367931485
scalar Network.dyn_peer[133] 	lookupHopsSig:mean 	9.25
scalar Network.dyn_peer[134] 	lookupTimeSig:mean 	1.225
scalar Network.dyn_peer[134] 	lookupStabilitySig:mean 	0.55698051862419
scalar Network.dyn_peer[134] 	lookupHopsSig:mean 	11.5
scalar Network.dyn_peer[135] 	lookupTimeSig:mean 	0.52
scalar Network.dyn_peer[135] 	lookupStabilitySig:mean 	0.53523126393557
scalar Network.dyn_peer[135] 	lookupHopsSig:mean 	4.4
scalar Network.dyn_peer[136] 	lookupTimeSig:mean 	1.3
scalar Network.dyn_peer[136] 	lookupStabilitySig:mean 	0.8645925234471
scalar Network.dyn_peer[136] 	lookupHopsSig:mean 	12.142857142857
scalar Network.dyn_peer[137] 	lookupTimeSig:mean 	0.975
scalar Network.dyn_peer[137] 	lookupStabilitySig:mean 	0.72425514087081
scalar Network.dyn_peer[137] 	lookupHopsSig:mean 	9
scalar Network.dyn_peer[138] 	lookupTimeSig:mean 	1.1333333333333
scalar Network.dyn_peer[138] 	lookupStabilitySig:mean 	0.75397974671796
scalar Network.dyn_peer[138] 	lookupHopsSig:mean 	10.5
scalar Network.dyn_peer[139] 	lookupTimeSig:mean 	1.45
scalar Network.dyn_peer[139] 	lookupStabilitySig:mean 	0.53304579947144
scalar Network.dyn_peer[139] 	lookupHopsSig:mean 	13.75
scalar Network.dyn_peer[140] 	lookupTimeSig:mean 	1.5
scalar Network.dyn_peer[140] 	lookupStabilitySig:mean 	0.90714089936228
scalar Network.dyn_peer[140] 	lookupHopsSig:mean 	14.125
scalar Network.dyn_peer[141] 	lookupTimeSig:mean 	2.1
scalar Network.dyn_peer[141] 	lookupStabilitySig:mean 	0.40927834808826
scalar Network.dyn_peer[141] 	lookupHopsSig:mean 	20.5
scalar Network.dyn_peer[142] 	lookupTimeSig:mean 	0.98
scalar Network.dyn_peer[142] 	lookupStabilitySig:mean 	0.60346640050411
scalar Network.dyn_peer[142] 	lookupHopsSig:mean 	9
scalar Network.dyn_peer[143] 	lookupTimeSig:mean 	2.2666666666667
scalar Network.dyn_peer[143] 	lookupStabilitySig:mean 	0.81347619617979
scalar Network.dyn_peer[143] 	lookupHopsSig:mean 	22
scalar Network.dyn_peer[144] 	lookupTimeSig:mean 	1.34
scalar Network.dyn_peer[144] 	lookupStabilitySig:mean 	0.79081987440586
scalar Network.dyn_peer[144] 	lookupHopsSig:mean 	12.6
scalar Network.dyn_peer[145] 	lookupTimeSig:mean 	1.2454545454545
scalar Network.dyn_peer[145] 	lookupStabilitySig:mean 	0.90705531158231
scalar Network.dyn_peer[145] 	lookupHopsSig:mean 	11.545454545455
scalar Network.dyn_peer[146] 	lookupTimeSig:mean 	1.1166666666667
scalar Network.dyn_peer[146] 	lookupStabilitySig:mean 	0.87203762633726
scalar Network.dyn_peer[146] 	lookupHopsSig:mean 	10.25
scalar Network.dyn_peer[147] 	lookupTimeSig:mean 	1.58
scalar Network.dyn_peer[147] 	lookupStabilitySig:mean 	0.89221455529332
scalar Network.dyn_peer[147] 	lookupHopsSig:mean 	15
scalar Network.dyn_peer[148] 	lookupTimeSig:mean 	1.6
scalar Network.dyn_peer[148] 	lookupStabilitySig:mean 	0.71737584595879
scalar Network.dyn_peer[148] 	lookupHopsSig:mean 	15.166666666667
scalar Network.dyn_peer[149] 	lookupTimeSig:mean 	1.425
scalar Network.dyn_peer[149] 	lookupStabilitySig:mean 	0.65542809665203
scalar Network.dyn_peer[149] 	lookupHopsSig:mean 	13.5
scalar Network.dyn_peer[150] 	lookupTimeSig:mean 	1.7166666666667
scalar Network.dyn_peer[150] 	lookupStabilitySig:mean 	0.87889952460925
scalar Network.dyn_peer[150] 	lookupHopsSig:mean 	16.333333333333
scalar Network.dyn_peer[151] 	lookupTimeSig:mean 	1.3545454545455
scalar Network.dyn_peer[151] 	lookupStabilitySig:mean 	0.915241104085
scalar Network.dyn_peer[151] 	lookupHopsSig:mean 	12.636363636364
scalar Network.dyn_peer[152] 	lookupTimeSig:mean 	0.62
scalar Network.dyn_peer[152] 	lookupStabilitySig:mean 	0.63761485517025
scalar Network.dyn_peer[152] 	lookupHopsSig:mean 	5.4
scalar Network.dyn_peer[153] 	lookupTimeSig:mean 	1.0833333333333
scalar Network.dyn_peer[153] 	lookupStabilitySig:mean 	0.72420979229112
scalar Network.dyn_peer[153] 	lookupHopsSig:mean 	10
scalar Network.dyn_peer[154] 	lookupTimeSig:mean 	1.1363636363636
scalar Network.dyn_peer[154] 	lookupStabilitySig:mean 	0.92214779107069
scalar Network.dyn_peer[154] 	lookupHopsSig:mean 	10.454545454545
scalar Network.dyn_peer[155] 	lookupTimeSig:mean 	1.15
scalar Network.dyn_peer[155] 	lookupStabilitySig:mean 	0.80221715103835
scalar Network.dyn_peer[155] 	lookupHopsSig:mean 	10.75
scalar Network.dyn_peer[156] 	lookupTimeSig:mean 	0.6
scalar Network.dyn_peer[156] 	lookupStabilitySig:mean 	0.59341099765152
scalar Network.dyn_peer[156] 	lookupHopsSig:mean 	5.25
scalar Network.dyn_peer[157] 	lookupTimeSig:mean 	1.7333333333333
scalar Network.dyn_peer[157] 	lookupStabilitySig:mean 	0.57580127691229
scalar Network.dyn_peer[157] 	lookupHopsSig:mean 	16.666666666667
scalar Network.dyn_peer[158] 	lookupTimeSig:mean 	1.7666666666667
scalar Network.dyn_peer[158] 	lookupStabilitySig:mean 	0.78900461892287
scalar Network.dyn_peer[158] 	lookupHopsSig:mean 	17
scalar Network.dyn_peer[159] 	lookupTimeSig:mean 	1.2
scalar Network.dyn_peer[159] 	lookupStabilitySig:mean 	0.74445777583039
scalar Network.dyn_peer[159] 	lookupHopsSig:mean 	11.111111111111
scalar Network.dyn_peer[160] 	lookupTimeSig:mean 	1.6
scalar Network.dyn_peer[160] 	lookupStabilitySig:mean 	0.72212005779147
scalar Network.dyn_peer[160] 	lookupHopsSig:mean 	15.2
scalar Network.dyn_peer[161] 	lookupTimeSig:mean 	1.1625
scalar Network.dyn_peer[161] 	lookupStabilitySig:mean 	0.88402287871577
scalar Network.dyn_peer[161] 	lookupHopsSig:mean 	10.75
scalar Network.dyn_peer[162] 	lookupTimeSig:mean 	1.62
scalar Network.dyn_peer[162] 	lookupStabilitySig:mean 	0.8634132836014
scalar Network.dyn_peer[162] 	lookupHopsSig:mean 	15.4
scalar Network.dyn_peer[163] 	lookupTimeSig:mean 	1.26
scalar Network.dyn_peer[163] 	lookupStabilitySig:mean 	0.86037858407944
scalar Network.dyn_peer[163] 	lookupHopsSig:mean 	11.8
scalar Network.dyn_peer[164] 	lookupTimeSig:mean 	1.3
scalar Network.dyn_peer[164] 	lookupStabilitySig:mean 	0.72146288771182
scalar Network.dyn_peer[164] 	lookupHopsSig:mean 	12.166666666667
scalar Network.dyn_peer[165] 	lookupTimeSig:mean 	1.25
scalar Network.dyn_peer[165] 	lookupStabilitySig:mean 	0.47883801162243
scalar Network.dyn_peer[165] 	lookupHopsSig:mean 	11.75
scalar Network.dyn_peer[166] 	lookupTimeSig:mean 	1.625
scalar Network.dyn_peer[166] 	lookupStabilitySig:mean 	0.72819577530026
scalar Network.dyn_peer[166] 	lookupHopsSig:mean 	15.5
scalar Network.dyn_peer[167] 	lookupTimeSig:mean 	1.2545454545455
scalar Network.dyn_peer[167] 	lookupStabilitySig:mean 	0.91865178739483
scalar Network.dyn_peer[167] 	lookupHopsSig:mean 	11.636363636364
scalar Network.dyn_peer[168] 	lookupTimeSig:mean 	1.04
scalar Network.dyn_peer[168] 	lookupStabilitySig:mean 	0.79757705777884
scalar Network.dyn_peer[168] 	lookupHopsSig:mean 	9.6
scalar Network.dyn_peer[169] 	lookupTimeSig:mean 	1.4857142857143
scalar Network.dyn_peer[169] 	lookupStabilitySig:mean 	0.93508356703179
scalar Network.dyn_peer[169] 	lookupHopsSig:mean 	14
scalar Network.dyn_peer[170] 	lookupTimeSig:mean 	1.2333333333333
scalar Network.dyn_peer[170] 	lookupStabilitySig:mean 	0.59487180163463
scalar Network.dyn_peer[170] 	lookupHopsSig:mean 	11.666666666667
scalar Network.dyn_peer[171] 	lookupTimeSig:mean 	1.1
scalar Network.dyn_peer[171] 	lookupStabilitySig:mean 	0.81099640039934
scalar Network.dyn_peer[171] 	lookupHopsSig:mean 	10.111111111111
scalar Network.dyn_peer[172] 	lookupTimeSig:mean 	0.975
scalar Network.dyn_peer[172] 	lookupStabilitySig:mean 	0.93969715274094
scalar Network.dyn_peer[172] 	lookupHopsSig:mean 	8.8333333333333
scalar Network.dyn_peer[173] 	lookupTimeSig:mean 	1.9666666666667
scalar Network.dyn_peer[173] 	lookupStabilitySig:mean 	0.59292599310478
scalar Network.dyn_peer[173] 	lookupHopsSig:mean 	19
scalar Network.dyn_peer[174] 	lookupTimeSig:mean 	1.6666666666667
scalar Network.dyn_peer[174] 	lookupStabilitySig:mean 	0.73477515329917
scalar Network.dyn_peer[174] 	lookupHopsSig:mean 	16
scalar Network.dyn_peer[175] 	lookupTimeSig:mean 	1.7
scalar Network.dyn_peer[175] 	lookupStabilitySig:mean 	0.3515625
scalar Network.dyn_peer[175] 	lookupHopsSig:mean 	16.5
scalar Network.dyn_peer[176] 	lookupTimeSig:mean 	1.3181818181818
scalar Network.dyn_peer[176] 	lookupStabilitySig:mean 	0.93357905212112
scalar Network.dyn_peer[176] 	lookupHopsSig:mean 	12.272727272727
scalar Network.dyn_peer[177] 	lookupTimeSig:mean 	1.85
scalar Network.dyn_peer[177] 	lookupStabilitySig:mean 	0.37974683195353
scalar Network.dyn_peer[177] 	lookupHopsSig:mean 	18
scalar Network.dyn_peer[178] 	lookupTimeSig:mean 	1.09
scalar Network.dyn_peer[178] 	lookupStabilitySig:mean 	0.88794483877718
scalar Network.dyn_peer[178] 	lookupHopsSig:mean 	10
scalar Network.dyn_peer[179] 	lookupTimeSig:mean 	1.38
scalar Network.dyn_peer[179] 	lookupStabilitySig:mean 	0.83435248024762
scalar Network.dyn_peer[179] 	lookupHopsSig:mean 	13
scalar Network.dyn_peer[180] 	lookupTimeSig:mean 	1.8666666666667
scalar Network.dyn_peer[180] 	lookupStabilitySig:mean 	0.64125229914983
scalar Network.dyn_peer[180] 	lookupHopsSig:mean 	18
scalar Network.dyn_peer[181] 	lookupTimeSig:mean 	0.875
scalar Network.dyn_peer[181] 	lookupStabilitySig:mean 	0.70472688786685
scalar Network.dyn_peer[181] 	lookupHopsSig:mean 	8
scalar Network.dyn_peer[182] 	lookupTimeSig:mean 	1.0375
scalar Network.dyn_peer[182] 	lookupStabilitySig:mean 	0.83046662039123
scalar Network.dyn_peer[182] 	lookupHopsSig:mean 	9.5
scalar Network.dyn_peer[183] 	lookupTimeSig:mean 	2.85
scalar Network.dyn_peer[183] 	lookupStabilitySig:mean 	0.57681365311146
scalar Network.dyn_peer[183] 	lookupHopsSig:mean 	28
scalar Network.dyn_peer[184] 	lookupTimeSig:mean 	0.6
scalar Network.dyn_peer[184] 	lookupStabilitySig:mean 	0.61974358707666
scalar Network.dyn_peer[184] 	lookupHopsSig:mean 	5.2
scalar Network.dyn_peer[185] 	lookupTimeSig:mean 	1.5666666666667
scalar Network.dyn_peer[185] 	lookupStabilitySig:mean 	0.58499999841054
scalar Network.dyn_peer[185] 	lookupHopsSig:mean 	15
scalar Network.dyn_peer[186] 	lookupTimeSig:mean 	1
scalar Network.dyn_peer[186] 	lookupStabilitySig:mean 	0.70544406212866
scalar Network.dyn_peer[186] 	lookupHopsSig:mean 	9.25
scalar Network.dyn_peer[187] 	lookupTimeSig:mean 	0.75
scalar Network.dyn_peer[187] 	lookupStabilitySig:mean 	0.83031829539686
scalar Network.dyn_peer[187] 	lookupHopsSig:mean 	6.6666666666667
scalar Network.dyn_peer[188] 	lookupTimeSig:mean 	1.27
scalar Network.dyn_peer[188] 	lookupStabilitySig:mean 	0.87800387209281
scalar Network.dyn_peer[188] 	lookupHopsSig:mean 	11.8
scalar Network.dyn_peer[189] 	lookupTimeSig:mean 	1.65
scalar Network.dyn_peer[189] 	lookupStabilitySig:mean 	0.57926220446825
scalar Network.dyn_peer[189] 	lookupHopsSig:mean 	16
scalar Network.dyn_peer[190] 	lookupTimeSig:mean 	1.15
scalar Network.dyn_peer[190] 	lookupStabilitySig:mean 	0.64817799068987
scalar Network.dyn_peer[190] 	lookupHopsSig:mean 	10.75
scalar Network.dyn_peer[191] 	lookupTimeSig:mean 	0.98333333333333
scalar Network.dyn_peer[191] 	lookupStabilitySig:mean 	0.78566350974143
scalar Network.dyn_peer[191] 	lookupHopsSig:mean 	9
scalar Network.dyn_peer[192] 	lookupTimeSig:mean 	1.55
scalar Network.dyn_peer[192] 	lookupStabilitySig:mean 	0.65940593183041
scalar Network.dyn_peer[192] 	lookupHopsSig:mean 	14.75
scalar Network.dyn_peer[193] 	lookupTimeSig:mean 	0.90833333333333
scalar Network.dyn_peer[193] 	lookupStabilitySig:mean 	0.86124498199206
scalar Network.dyn_peer[193] 	lookupHopsSig:mean 	8.1666666666667
scalar Network.dyn_peer[194] 	lookupTimeSig:mean 	1.5
scalar Network.dyn_peer[194] 	lookupStabilitySig:mean 	0.46358542889357
scalar Network.dyn_peer[194] 	lookupHopsSig:mean 	14.5
scalar Network.dyn_peer[195] 	lookupTimeSig:mean 	1.25
scalar Network.dyn_peer[195] 	lookupStabilitySig:mean 	0.69827560242265
scalar Network.dyn_peer[195] 	lookupHopsSig:mean 	11.75
scalar Network.dyn_peer[196] 	lookupTimeSig:mean 	1.7
scalar Network.dyn_peer[196] 	lookupStabilitySig:mean 	0.62591274082661
scalar Network.dyn_peer[196] 	lookupHopsSig:mean 	16.25
scalar Network.dyn_peer[197] 	lookupTimeSig:mean 	1.0714285714286
scalar Network.dyn_peer[197] 	lookupStabilitySig:mean 	0.77492199013276
scalar Network.dyn_peer[197] 	lookupHopsSig:mean 	9.8571428571429
scalar Network.dyn_peer[198] 	lookupTimeSig:mean 	1.2
scalar Network.dyn_peer[198] 	lookupStabilitySig:mean 	0.63141258526593
scalar Network.dyn_peer[198] 	lookupHopsSig:mean 	11.25
scalar Network.dyn_peer[199] 	lookupTimeSig:mean 	1.3666666666667
scalar Network.dyn_peer[199] 	lookupStabilitySig:mean 	0.52088258167108
scalar Network.dyn_peer[199] 	lookupHopsSig:mean 	13
scalar Network.dyn_peer[200] 	lookupTimeSig:mean 	1.2333333333333
scalar Network.dyn_peer[200] 	lookupStabilitySig:mean 	0.57579365248481
scalar Network.dyn_peer[200] 	lookupHopsSig:mean 	11.666666666667
scalar Network.dyn_peer[201] 	lookupTimeSig:mean 	2.1
scalar Network.dyn_peer[201] 	lookupStabilitySig:mean 	0.57434641569853
scalar Network.dyn_peer[201] 	lookupHopsSig:mean 	20.5
scalar Network.dyn_peer[202] 	lookupTimeSig:mean 	1.1
scalar Network.dyn_peer[202] 	lookupStabilitySig:mean 	0.9181168274954
scalar Network.dyn_peer[202] 	lookupHopsSig:mean 	10.111111111111
scalar Network.dyn_peer[203] 	lookupTimeSig:mean 	2.3333333333333
scalar Network.dyn_peer[203] 	lookupStabilitySig:mean 	0.49858196079731
scalar Network.dyn_peer[203] 	lookupHopsSig:mean 	22.666666666667
scalar Network.dyn_peer[204] 	lookupTimeSig:mean 	2.0666666666667
scalar Network.dyn_peer[204] 	lookupStabilitySig:mean 	0.62820843607187
scalar Network.dyn_peer[204] 	lookupHopsSig:mean 	20
scalar Network.dyn_peer[205] 	lookupTimeSig:mean 	1.2333333333333
scalar Network.dyn_peer[205] 	lookupStabilitySig:mean 	0.84878470220913
scalar Network.dyn_peer[205] 	lookupHopsSig:mean 	11.5
scalar Network.dyn_peer[206] 	lookupTimeSig:mean 	1.6
scalar Network.dyn_peer[206] 	lookupStabilitySig:mean 	0.58254963904619
scalar Network.dyn_peer[206] 	lookupHopsSig:mean 	15.5
scalar Network.dyn_peer[207] 	lookupTimeSig:mean 	0.7625
scalar Network.dyn_peer[207] 	lookupStabilitySig:mean 	0.80476239067502
scalar Network.dyn_peer[207] 	lookupHopsSig:mean 	6.75
scalar Network.dyn_peer[208] 	lookupTimeSig:mean 	1.2285714285714
scalar Network.dyn_peer[208] 	lookupStabilitySig:mean 	0.85913844752525
scalar Network.dyn_peer[208] 	lookupHopsSig:mean 	11.428571428571
scalar Network.dyn_peer[209] 	lookupTimeSig:mean 	2.1666666666667
scalar Network.dyn_peer[209] 	lookupStabilitySig:mean 	0.74982555334767
scalar Network.dyn_peer[209] 	lookupHopsSig:mean 	21
scalar Network.dyn_peer[210] 	lookupTimeSig:mean 	1.48
scalar Network.dyn_peer[210] 	lookupStabilitySig:mean 	0.89206713009626
scalar Network.dyn_peer[210] 	lookupHopsSig:mean 	14
scalar Network.dyn_peer[211] 	lookupTimeSig:mean 	3
scalar Network.dyn_peer[211] 	lookupStabilitySig:mean 	0.56964284926653
scalar Network.dyn_peer[211] 	lookupHopsSig:mean 	29.5
scalar Network.dyn_peer[212] 	lookupTimeSig:mean 	1.9
scalar Network.dyn_peer[212] 	lookupStabilitySig:mean 	0.60131384929021
scalar Network.dyn_peer[212] 	lookupHopsSig:mean 	18.333333333333
scalar Network.dyn_peer[213] 	lookupTimeSig:mean 	0.66666666666667
scalar Network.dyn_peer[213] 	lookupStabilitySig:mean 	0.60571428388357
scalar Network.dyn_peer[213] 	lookupHopsSig:mean 	6
scalar Network.dyn_peer[214] 	lookupTimeSig:mean 	3.4
scalar Network.dyn_peer[214] 	lookupStabilitySig:mean 	0.54556157439947
scalar Network.dyn_peer[214] 	lookupHopsSig:mean 	33.5
scalar Network.dyn_peer[215] 	lookupTimeSig:mean 	1.45
scalar Network.dyn_peer[215] 	lookupStabilitySig:mean 	0.73391165584326
scalar Network.dyn_peer[215] 	lookupHopsSig:mean 	13.75
scalar Network.dyn_peer[216] 	lookupTimeSig:mean 	2.1
scalar Network.dyn_peer[216] 	lookupStabilitySig:mean 	0.60565939048926
scalar Network.dyn_peer[216] 	lookupHopsSig:mean 	20.333333333333
scalar Network.dyn_peer[217] 	lookupTimeSig:mean 	1
scalar Network.dyn_peer[217] 	lookupStabilitySig:mean 	0.6693620942533
scalar Network.dyn_peer[217] 	lookupHopsSig:mean 	9.1666666666667
scalar Network.dyn_peer[218] 	lookupTimeSig:mean 	1.3714285714286
scalar Network.dyn_peer[218] 	lookupStabilitySig:mean 	0.90554875108813
scalar Network.dyn_peer[218] 	lookupHopsSig:mean 	12.857142857143
scalar Network.dyn_peer[219] 	lookupTimeSig:mean 	2.1666666666667
scalar Network.dyn_peer[219] 	lookupStabilitySig:mean 	0.56656657159328
scalar Network.dyn_peer[219] 	lookupHopsSig:mean 	21
scalar Network.dyn_peer[220] 	lookupTimeSig:mean 	1.925
scalar Network.dyn_peer[220] 	lookupStabilitySig:mean 	0.66634266125038
scalar Network.dyn_peer[220] 	lookupHopsSig:mean 	18.5
scalar Network.dyn_peer[221] 	lookupTimeSig:mean 	1
scalar Network.dyn_peer[221] 	lookupStabilitySig:mean 	0.75157701596618
scalar Network.dyn_peer[221] 	lookupHopsSig:mean 	9.1666666666667
scalar Network.dyn_peer[222] 	lookupTimeSig:mean 	1.4666666666667
scalar Network.dyn_peer[222] 	lookupStabilitySig:mean 	0.6033712575833
scalar Network.dyn_peer[222] 	lookupHopsSig:mean 	14
scalar Network.dyn_peer[223] 	lookupTimeSig:mean 	1.1
scalar Network.dyn_peer[223] 	lookupStabilitySig:mean 	0.71717547330384
scalar Network.dyn_peer[223] 	lookupHopsSig:mean 	10.166666666667
scalar Network.dyn_peer[224] 	lookupTimeSig:mean 	0.925
scalar Network.dyn_peer[224] 	lookupStabilitySig:mean 	0.50629578717053
scalar Network.dyn_peer[224] 	lookupHopsSig:mean 	8.5
scalar Network.dyn_peer[225] 	lookupTimeSig:mean 	0.7
scalar Network.dyn_peer[225] 	lookupStabilitySig:mean 	0.77547844392913
scalar Network.dyn_peer[225] 	lookupHopsSig:mean 	6.1428571428571
scalar Network.dyn_peer[226] 	lookupTimeSig:mean 	1.025
scalar Network.dyn_peer[226] 	lookupStabilitySig:mean 	0.69899748824537
scalar Network.dyn_peer[226] 	lookupHopsSig:mean 	9.5
scalar Network.dyn_peer[227] 	lookupTimeSig:mean 	0.84
scalar Network.dyn_peer[227] 	lookupStabilitySig:mean 	0.56380634941161
scalar Network.dyn_peer[227] 	lookupHopsSig:mean 	7.6
scalar Network.dyn_peer[228] 	lookupTimeSig:mean 	1.24
scalar Network.dyn_peer[228] 	lookupStabilitySig:mean 	0.80329505689442
scalar Network.dyn_peer[228] 	lookupHopsSig:mean 	11.6
scalar Network.dyn_peer[229] 	lookupTimeSig:mean 	0.85
scalar Network.dyn_peer[229] 	lookupStabilitySig:mean 	0.86522571342066
scalar Network.dyn_peer[229] 	lookupHopsSig:mean 	7.6
scalar Network.dyn_peer[230] 	lookupTimeSig:mean 	1.4222222222222
scalar Network.dyn_peer[230] 	lookupStabilitySig:mean 	0.9512219496537
scalar Network.dyn_peer[230] 	lookupHopsSig:mean 	13.333333333333
scalar Network.dyn_peer[231] 	lookupTimeSig:mean 	1.4
scalar Network.dyn_peer[231] 	lookupStabilitySig:mean 	0.5281537125508
scalar Network.dyn_peer[231] 	lookupHopsSig:mean 	13.333333333333
scalar Network.dyn_peer[232] 	lookupTimeSig:mean 	1.3636363636364
scalar Network.dyn_peer[232] 	lookupStabilitySig:mean 	0.8951245457442
scalar Network.dyn_peer[232] 	lookupHopsSig:mean 	12.727272727273
scalar Network.dyn_peer[233] 	lookupTimeSig:mean 	1.15
scalar Network.dyn_peer[233] 	lookupStabilitySig:mean 	0.64676274731755
scalar Network.dyn_peer[233] 	lookupHopsSig:mean 	10.75
scalar Network.dyn_peer[234] 	lookupTimeSig:mean 	1.7
scalar Network.dyn_peer[234] 	lookupStabilitySig:mean 	0.63683756440878
scalar Network.dyn_peer[234] 	lookupHopsSig:mean 	16.25
scalar Network.dyn_peer[235] 	lookupTimeSig:mean 	0.66666666666667
scalar Network.dyn_peer[235] 	lookupStabilitySig:mean 	0.35123457511266
scalar Network.dyn_peer[235] 	lookupHopsSig:mean 	6
scalar Network.dyn_peer[236] 	lookupTimeSig:mean 	1.175
scalar Network.dyn_peer[236] 	lookupStabilitySig:mean 	0.63085587695241
scalar Network.dyn_peer[236] 	lookupHopsSig:mean 	11
scalar Network.dyn_peer[237] 	lookupTimeSig:mean 	2.2
scalar Network.dyn_peer[237] 	lookupStabilitySig:mean 	0.77920369245112
scalar Network.dyn_peer[237] 	lookupHopsSig:mean 	21.333333333333
scalar Network.dyn_peer[238] 	lookupTimeSig:mean 	1.325
scalar Network.dyn_peer[238] 	lookupStabilitySig:mean 	0.75893606524915
scalar Network.dyn_peer[238] 	lookupHopsSig:mean 	12.5
scalar Network.dyn_peer[239] 	lookupTimeSig:mean 	1.04
scalar Network.dyn_peer[239] 	lookupStabilitySig:mean 	0.76561187654734
scalar Network.dyn_peer[239] 	lookupHopsSig:mean 	9.6
scalar Network.dyn_peer[240] 	lookupTimeSig:mean 	0.97777777777778
scalar Network.dyn_peer[240] 	lookupStabilitySig:mean 	0.82399725324164
scalar Network.dyn_peer[240] 	lookupHopsSig:mean 	8.8888888888889
scalar Network.dyn_peer[241] 	lookupTimeSig:mean 	1.4857142857143
scalar Network.dyn_peer[241] 	lookupStabilitySig:mean 	0.85516257850187
scalar Network.dyn_peer[241] 	lookupHopsSig:mean 	14
scalar Network.dyn_peer[242] 	lookupTimeSig:mean 	1.325
scalar Network.dyn_peer[242] 	lookupStabilitySig:mean 	0.77793513610959
scalar Network.dyn_peer[242] 	lookupHopsSig:mean 	12.5
scalar Network.dyn_peer[243] 	lookupTimeSig:mean 	1.175
scalar Network.dyn_peer[243] 	lookupStabilitySig:mean 	0.91707981284708
scalar Network.dyn_peer[243] 	lookupHopsSig:mean 	10.833333333333
scalar Network.dyn_peer[244] 	lookupTimeSig:mean 	1.2
scalar Network.dyn_peer[244] 	lookupStabilitySig:mean 	0.54427934531122
scalar Network.dyn_peer[244] 	lookupHopsSig:mean 	11.25
scalar Network.dyn_peer[245] 	lookupTimeSig:mean 	1.075
scalar Network.dyn_peer[245] 	lookupStabilitySig:mean 	0.64427839033306
scalar Network.dyn_peer[245] 	lookupHopsSig:mean 	10
scalar Network.dyn_peer[246] 	lookupTimeSig:mean 	1.0142857142857
scalar Network.dyn_peer[246] 	lookupStabilitySig:mean 	0.84323404649539
scalar Network.dyn_peer[246] 	lookupHopsSig:mean 	9.2857142857143
scalar Network.dyn_peer[247] 	lookupTimeSig:mean 	0.94285714285714
scalar Network.dyn_peer[247] 	lookupStabilitySig:mean 	0.73975161223539
scalar Network.dyn_peer[247] 	lookupHopsSig:mean 	8.5714285714286
scalar Network.dyn_peer[248] 	lookupTimeSig:mean 	1.7
scalar Network.dyn_peer[248] 	lookupStabilitySig:mean 	0.93676194525324
scalar Network.dyn_peer[248] 	lookupHopsSig:mean 	16.125
scalar Network.dyn_peer[249] 	lookupTimeSig:mean 	1.1071428571429
scalar Network.dyn_peer[249] 	lookupStabilitySig:mean 	0.93981624793793
scalar Network.dyn_peer[249] 	lookupHopsSig:mean 	10.142857142857
scalar Network.dyn_peer[250] 	lookupTimeSig:mean 	1.425
scalar Network.dyn_peer[250] 	lookupStabilitySig:mean 	0.90522309020162
scalar Network.dyn_peer[250] 	lookupHopsSig:mean 	13.375
scalar Network.dyn_peer[251] 	lookupTimeSig:mean 	1.1285714285714
scalar Network.dyn_peer[251] 	lookupStabilitySig:mean 	0.90135433711112
scalar Network.dyn_peer[251] 	lookupHopsSig:mean 	10.428571428571
scalar Network.dyn_peer[252] 	lookupTimeSig:mean 	1.5
scalar Network.dyn_peer[252] 	lookupStabilitySig:mean 	0.82359138177708
scalar Network.dyn_peer[252] 	lookupHopsSig:mean 	14.25
scalar Network.dyn_peer[253] 	lookupTimeSig:mean 	1.1583333333333
scalar Network.dyn_peer[253] 	lookupStabilitySig:mean 	0.83577035670169
scalar Network.dyn_peer[253] 	lookupHopsSig:mean 	10.666666666667
scalar Network.dyn_peer[254] 	lookupTimeSig:mean 	1.725
scalar Network.dyn_peer[254] 	lookupStabilitySig:mean 	0.6622675661929
scalar Network.dyn_peer[254] 	lookupHopsSig:mean 	16.5
scalar Network.dyn_peer[255] 	lookupTimeSig:mean 	0.5
scalar Network.dyn_peer[255] 	lookupStabilitySig:mean 	0.28749999403954
scalar Network.dyn_peer[255] 	lookupHopsSig:mean 	4.5
scalar Network.dyn_peer[256] 	lookupTimeSig:mean 	1.625
scalar Network.dyn_peer[256] 	lookupStabilitySig:mean 	0.79667145991698
scalar Network.dyn_peer[256] 	lookupHopsSig:mean 	15.5
scalar Network.dyn_peer[257] 	lookupTimeSig:mean 	2.02
scalar Network.dyn_peer[257] 	lookupStabilitySig:mean 	0.86403567120433
scalar Network.dyn_peer[257] 	lookupHopsSig:mean 	19.4
scalar Network.dyn_peer[258] 	lookupTimeSig:mean 	1.26
scalar Network.dyn_peer[258] 	lookupStabilitySig:mean 	0.69997255764902
scalar Network.dyn_peer[258] 	lookupHopsSig:mean 	11.8
scalar Network.dyn_peer[259] 	lookupTimeSig:mean 	1.56
scalar Network.dyn_peer[259] 	lookupStabilitySig:mean 	0.79728179350495
scalar Network.dyn_peer[259] 	lookupHopsSig:mean 	14.8
scalar Network.dyn_peer[260] 	lookupTimeSig:mean 	0.92222222222222
scalar Network.dyn_peer[260] 	lookupStabilitySig:mean 	0.90361233102158
scalar Network.dyn_peer[260] 	lookupHopsSig:mean 	8.3333333333333
scalar Network.dyn_peer[261] 	lookupTimeSig:mean 	1.0285714285714
scalar Network.dyn_peer[261] 	lookupStabilitySig:mean 	0.87035049937133
scalar Network.dyn_peer[261] 	lookupHopsSig:mean 	9.4285714285714
scalar Network.dyn_peer[262] 	lookupTimeSig:mean 	1.2777777777778
scalar Network.dyn_peer[262] 	lookupStabilitySig:mean 	0.8955290965322
scalar Network.dyn_peer[262] 	lookupHopsSig:mean 	11.888888888889
scalar Network.dyn_peer[263] 	lookupTimeSig:mean 	1.74
scalar Network.dyn_peer[263] 	lookupStabilitySig:mean 	0.81203485354781
scalar Network.dyn_peer[263] 	lookupHopsSig:mean 	16.6
scalar Network.dyn_peer[264] 	lookupTimeSig:mean 	1.2666666666667
scalar Network.dyn_peer[264] 	lookupStabilitySig:mean 	0.73997504170984
scalar Network.dyn_peer[264] 	lookupHopsSig:mean 	11.833333333333
scalar Network.dyn_peer[265] 	lookupTimeSig:mean 	1
scalar Network.dyn_peer[265] 	lookupStabilitySig:mean 	0.84753913797128
scalar Network.dyn_peer[265] 	lookupHopsSig:mean 	9.1666666666667
scalar Network.dyn_peer[266] 	lookupTimeSig:mean 	1.2
scalar Network.dyn_peer[266] 	lookupStabilitySig:mean 	0.72007933370769
scalar Network.dyn_peer[266] 	lookupHopsSig:mean 	11.2
scalar Network.dyn_peer[267] 	lookupTimeSig:mean 	0.95384615384615
scalar Network.dyn_peer[267] 	lookupStabilitySig:mean 	0.89590650488837
scalar Network.dyn_peer[267] 	lookupHopsSig:mean 	8.6153846153846
scalar Network.dyn_peer[268] 	lookupTimeSig:mean 	1.5
scalar Network.dyn_peer[268] 	lookupStabilitySig:mean 	0.76205565811445
scalar Network.dyn_peer[268] 	lookupHopsSig:mean 	14.166666666667
scalar Network.dyn_peer[269] 	lookupTimeSig:mean 	0.92857142857143
scalar Network.dyn_peer[269] 	lookupStabilitySig:mean 	0.89514044672251
scalar Network.dyn_peer[269] 	lookupHopsSig:mean 	8.4285714285714
scalar Network.dyn_peer[270] 	lookupTimeSig:mean 	2.1
scalar Network.dyn_peer[270] 	lookupStabilitySig:mean 	0.83309342432767
scalar Network.dyn_peer[270] 	lookupHopsSig:mean 	20.25
scalar Network.dyn_peer[271] 	lookupTimeSig:mean 	0.97777777777778
scalar Network.dyn_peer[271] 	lookupStabilitySig:mean 	0.92381051607016
scalar Network.dyn_peer[271] 	lookupHopsSig:mean 	8.8888888888889
scalar Network.dyn_peer[272] 	lookupTimeSig:mean 	1.4
scalar Network.dyn_peer[272] 	lookupStabilitySig:mean 	0.76367634441704
scalar Network.dyn_peer[272] 	lookupHopsSig:mean 	13.25
scalar Network.dyn_peer[273] 	lookupTimeSig:mean 	1.6333333333333
scalar Network.dyn_peer[273] 	lookupStabilitySig:mean 	0.59612328062455
scalar Network.dyn_peer[273] 	lookupHopsSig:mean 	15.666666666667
scalar Network.dyn_peer[274] 	lookupTimeSig:mean 	1.36
scalar Network.dyn_peer[274] 	lookupStabilitySig:mean 	0.69931133314967
scalar Network.dyn_peer[274] 	lookupHopsSig:mean 	12.8
scalar Network.dyn_peer[275] 	lookupTimeSig:mean 	1
scalar Network.dyn_peer[275] 	lookupStabilitySig:mean 	0.6854963876307
scalar Network.dyn_peer[275] 	lookupHopsSig:mean 	9.2
scalar Network.dyn_peer[276] 	lookupTimeSig:mean 	1.35
scalar Network.dyn_peer[276] 	lookupStabilitySig:mean 	0.89526753438016
scalar Network.dyn_peer[276] 	lookupHopsSig:mean 	12.666666666667
scalar Network.dyn_peer[277] 	lookupTimeSig:mean 	2.2
scalar Network.dyn_peer[277] 	lookupStabilitySig:mean 	0.48125997185707
scalar Network.dyn_peer[277] 	lookupHopsSig:mean 	21.5
scalar Network.dyn_peer[278] 	lookupTimeSig:mean 	1.1125
scalar Network.dyn_peer[278] 	lookupStabilitySig:mean 	0.85491975711193
scalar Network.dyn_peer[278] 	lookupHopsSig:mean 	10.25
scalar Network.dyn_peer[279] 	lookupTimeSig:mean 	1.8333333333333
scalar Network.dyn_peer[279] 	lookupStabilitySig:mean 	0.55018245180448
scalar Network.dyn_peer[279] 	lookupHopsSig:mean 	17.666666666667
scalar Network.dyn_peer[280] 	lookupTimeSig:mean 	1.22
scalar Network.dyn_peer[280] 	lookupStabilitySig:mean 	0.75404873043299
scalar Network.dyn_peer[280] 	lookupHopsSig:mean 	11.4
scalar Network.dyn_peer[281] 	lookupTimeSig:mean 	1.2545454545455
scalar Network.dyn_peer[281] 	lookupStabilitySig:mean 	0.92036006184803
scalar Network.dyn_peer[281] 	lookupHopsSig:mean 	11.636363636364
scalar Network.dyn_peer[282] 	lookupTimeSig:mean 	1.5222222222222
scalar Network.dyn_peer[282] 	lookupStabilitySig:mean 	0.94812075866179
scalar Network.dyn_peer[282] 	lookupHopsSig:mean 	14.333333333333
scalar Network.dyn_peer[283] 	lookupTimeSig:mean 	1.2666666666667
scalar Network.dyn_peer[283] 	lookupStabilitySig:mean 	0.76122470200062
scalar Network.dyn_peer[283] 	lookupHopsSig:mean 	11.833333333333
scalar Network.dyn_peer[284] 	lookupTimeSig:mean 	1.5
scalar Network.dyn_peer[284] 	lookupStabilitySig:mean 	0.94891269970685
scalar Network.dyn_peer[284] 	lookupHopsSig:mean 	14.083333333333
scalar Network.dyn_peer[285] 	lookupTimeSig:mean 	1.1
scalar Network.dyn_peer[285] 	lookupStabilitySig:mean 	0.443589741985
scalar Network.dyn_peer[285] 	lookupHopsSig:mean 	10.333333333333
scalar Network.dyn_peer[286] 	lookupTimeSig:mean 	1.46
scalar Network.dyn_peer[286] 	lookupStabilitySig:mean 	0.85026800297201
scalar Network.dyn_peer[286] 	lookupHopsSig:mean 	13.8
scalar Network.dyn_peer[287] 	lookupTimeSig:mean 	1.55
scalar Network.dyn_peer[287] 	lookupStabilitySig:mean 	0.51634615845978
scalar Network.dyn_peer[287] 	lookupHopsSig:mean 	14.75
scalar Network.dyn_peer[288] 	lookupTimeSig:mean 	1.1333333333333
scalar Network.dyn_peer[288] 	lookupStabilitySig:mean 	0.5233082746466
scalar Network.dyn_peer[288] 	lookupHopsSig:mean 	10.666666666667
scalar Network.dyn_peer[289] 	lookupTimeSig:mean 	1.55
scalar Network.dyn_peer[289] 	lookupStabilitySig:mean 	0.8577741519548
scalar Network.dyn_peer[289] 	lookupHopsSig:mean 	14.75
scalar Network.dyn_peer[290] 	lookupTimeSig:mean 	1.18
scalar Network.dyn_peer[290] 	lookupStabilitySig:mean 	0.74864065591246
scalar Network.dyn_peer[290] 	lookupHopsSig:mean 	11
scalar Network.dyn_peer[291] 	lookupTimeSig:mean 	1.6375
scalar Network.dyn_peer[291] 	lookupStabilitySig:mean 	0.9388967184932
scalar Network.dyn_peer[291] 	lookupHopsSig:mean 	15.5
scalar Network.dyn_peer[292] 	lookupTimeSig:mean 	1.16
scalar Network.dyn_peer[292] 	lookupStabilitySig:mean 	0.76858111917973
scalar Network.dyn_peer[292] 	lookupHopsSig:mean 	10.8
scalar Network.dyn_peer[293] 	lookupTimeSig:mean 	2.575
scalar Network.dyn_peer[293] 	lookupStabilitySig:mean 	0.76690013892949
scalar Network.dyn_peer[293] 	lookupHopsSig:mean 	25
scalar Network.dyn_peer[294] 	lookupTimeSig:mean 	1.175
scalar Network.dyn_peer[294] 	lookupStabilitySig:mean 	0.58020334690809
scalar Network.dyn_peer[294] 	lookupHopsSig:mean 	11
scalar Network.dyn_peer[295] 	lookupTimeSig:mean 	0.91428571428571
scalar Network.dyn_peer[295] 	lookupStabilitySig:mean 	0.8623305875808
scalar Network.dyn_peer[295] 	lookupHopsSig:mean 	8.2857142857143
scalar Network.dyn_peer[296] 	lookupTimeSig:mean 	1.6666666666667
scalar Network.dyn_peer[296] 	lookupStabilitySig:mean 	0.67509230971336
scalar Network.dyn_peer[296] 	lookupHopsSig:mean 	16
scalar Network.dyn_peer[297] 	lookupTimeSig:mean 	1.0857142857143
scalar Network.dyn_peer[297] 	lookupStabilitySig:mean 	0.741882281644
scalar Network.dyn_peer[297] 	lookupHopsSig:mean 	10
scalar Network.dyn_peer[298] 	lookupTimeSig:mean 	1.6571428571429
scalar Network.dyn_peer[298] 	lookupStabilitySig:mean 	0.89255489675062
scalar Network.dyn_peer[298] 	lookupHopsSig:mean 	15.714285714286
scalar Network.dyn_peer[299] 	lookupTimeSig:mean 	1.4
scalar Network.dyn_peer[299] 	lookupStabilitySig:mean 	0.86045877635479
scalar Network.dyn_peer[299] 	lookupHopsSig:mean 	13.166666666667
scalar Network.dyn_peer[300] 	lookupTimeSig:mean 	1.2384615384615
scalar Network.dyn_peer[300] 	lookupStabilitySig:mean 	0.8459451548182
scalar Network.dyn_peer[300] 	lookupHopsSig:mean 	11.461538461538
scalar Network.dyn_peer[301] 	lookupTimeSig:mean 	1.3
scalar Network.dyn_peer[301] 	lookupStabilitySig:mean 	0.65781001280993
scalar Network.dyn_peer[301] 	lookupHopsSig:mean 	12.25
scalar Network.dyn_peer[302] 	lookupTimeSig:mean 	1.4
scalar Network.dyn_peer[302] 	lookupStabilitySig:mean 	0.83196938000619
scalar Network.dyn_peer[302] 	lookupHopsSig:mean 	13.2
scalar Network.dyn_peer[303] 	lookupTimeSig:mean 	1.45
scalar Network.dyn_peer[303] 	lookupStabilitySig:mean 	0.92601057200227
scalar Network.dyn_peer[303] 	lookupHopsSig:mean 	13.625
scalar Network.dyn_peer[304] 	lookupTimeSig:mean 	1.5125
scalar Network.dyn_peer[304] 	lookupStabilitySig:mean 	0.83869184588548
scalar Network.dyn_peer[304] 	lookupHopsSig:mean 	14.25
scalar Network.dyn_peer[305] 	lookupTimeSig:mean 	0.98333333333333
scalar Network.dyn_peer[305] 	lookupStabilitySig:mean 	0.79612793245663
scalar Network.dyn_peer[305] 	lookupHopsSig:mean 	9
scalar Network.dyn_peer[306] 	lookupTimeSig:mean 	0.87142857142857
scalar Network.dyn_peer[306] 	lookupStabilitySig:mean 	0.78001059911081
scalar Network.dyn_peer[306] 	lookupHopsSig:mean 	7.8571428571429
scalar Network.dyn_peer[307] 	lookupTimeSig:mean 	1.1
scalar Network.dyn_peer[307] 	lookupStabilitySig:mean 	0.8976597876421
scalar Network.dyn_peer[307] 	lookupHopsSig:mean 	10.142857142857
scalar Network.dyn_peer[308] 	lookupTimeSig:mean 	1.6666666666667
scalar Network.dyn_peer[308] 	lookupStabilitySig:mean 	0.69860266149044
scalar Network.dyn_peer[308] 	lookupHopsSig:mean 	16
scalar Network.dyn_peer[309] 	lookupTimeSig:mean 	1.4
scalar Network.dyn_peer[309] 	lookupStabilitySig:mean 	0.68733910396695
scalar Network.dyn_peer[309] 	lookupHopsSig:mean 	13.2
scalar Network.dyn_peer[310] 	lookupTimeSig:mean 	1.3083333333333
scalar Network.dyn_peer[310] 	lookupStabilitySig:mean 	0.94435904128477
scalar Network.dyn_peer[310] 	lookupHopsSig:mean 	12.166666666667
scalar Network.dyn_peer[311] 	lookupTimeSig:mean 	0.83333333333333
scalar Network.dyn_peer[311] 	lookupStabilitySig:mean 	0.32907268901666
scalar Network.dyn_peer[311] 	lookupHopsSig:mean 	7.6666666666667
scalar Network.dyn_peer[312] 	lookupTimeSig:mean 	1.2
scalar Network.dyn_peer[312] 	lookupStabilitySig:mean 	0.75098583102226
scalar Network.dyn_peer[312] 	lookupHopsSig:mean 	11.25
scalar Network.dyn_peer[313] 	lookupTimeSig:mean 	1.2333333333333
scalar Network.dyn_peer[313] 	lookupStabilitySig:mean 	0.89639635725568
scalar Network.dyn_peer[313] 	lookupHopsSig:mean 	11.5
scalar Network.dyn_peer[314] 	lookupTimeSig:mean 	0.925
scalar Network.dyn_peer[314] 	lookupStabilitySig:mean 	0.67111771460623
scalar Network.dyn_peer[314] 	lookupHopsSig:mean 	8.5
scalar Network.dyn_peer[315] 	lookupTimeSig:mean 	2.85
scalar Network.dyn_peer[315] 	lookupStabilitySig:mean 	0.45138888806105
scalar Network.dyn_peer[315] 	lookupHopsSig:mean 	28
scalar Network.dyn_peer[316] 	lookupTimeSig:mean 	0.8
scalar Network.dyn_peer[316] 	lookupStabilitySig:mean 	0.43913307785988
scalar Network.dyn_peer[316] 	lookupHopsSig:mean 	7.25
scalar Network.dyn_peer[317] 	lookupTimeSig:mean 	0.81666666666667
scalar Network.dyn_peer[317] 	lookupStabilitySig:mean 	0.78132026145856
scalar Network.dyn_peer[317] 	lookupHopsSig:mean 	7.3333333333333
scalar Network.dyn_peer[318] 	lookupTimeSig:mean 	1.1
scalar Network.dyn_peer[318] 	lookupStabilitySig:mean 	0.6745958806326
scalar Network.dyn_peer[318] 	lookupHopsSig:mean 	10.166666666667
scalar Network.dyn_peer[319] 	lookupTimeSig:mean 	1.0888888888889
scalar Network.dyn_peer[319] 	lookupStabilitySig:mean 	0.87188113470458
scalar Network.dyn_peer[319] 	lookupHopsSig:mean 	10
scalar Network.dyn_peer[320] 	lookupTimeSig:mean 	1.0384615384615
scalar Network.dyn_peer[320] 	lookupStabilitySig:mean 	0.92088270230362
scalar Network.dyn_peer[320] 	lookupHopsSig:mean 	9.4615384615385
scalar Network.dyn_peer[321] 	lookupTimeSig:mean 	1.8666666666667
scalar Network.dyn_peer[321] 	lookupStabilitySig:mean 	0.30141372978687
scalar Network.dyn_peer[321] 	lookupHopsSig:mean 	18
scalar Network.dyn_peer[322] 	lookupTimeSig:mean 	1
scalar Network.dyn_peer[322] 	lookupStabilitySig:mean 	0.86752103467006
scalar Network.dyn_peer[322] 	lookupHopsSig:mean 	9.125
scalar Network.dyn_peer[323] 	lookupTimeSig:mean 	1.35
scalar Network.dyn_peer[323] 	lookupStabilitySig:mean 	0.65483623743057
scalar Network.dyn_peer[323] 	lookupHopsSig:mean 	12.75
scalar Network.dyn_peer[324] 	lookupTimeSig:mean 	0.8
scalar Network.dyn_peer[324] 	lookupStabilitySig:mean 	0.88097456921465
scalar Network.dyn_peer[324] 	lookupHopsSig:mean 	7.0769230769231
scalar Network.dyn_peer[325] 	lookupTimeSig:mean 	2.2
scalar Network.dyn_peer[325] 	lookupStabilitySig:mean 	0.79440139606595
scalar Network.dyn_peer[325] 	lookupHopsSig:mean 	21.333333333333
scalar Network.dyn_peer[326] 	lookupTimeSig:mean 	1.5
scalar Network.dyn_peer[326] 	lookupStabilitySig:mean 	0.78712782636285
scalar Network.dyn_peer[326] 	lookupHopsSig:mean 	14.333333333333
scalar Network.dyn_peer[327] 	lookupTimeSig:mean 	1.025
scalar Network.dyn_peer[327] 	lookupStabilitySig:mean 	0.6480165719986
scalar Network.dyn_peer[327] 	lookupHopsSig:mean 	9.5
scalar Network.dyn_peer[328] 	lookupTimeSig:mean 	0.93333333333333
scalar Network.dyn_peer[328] 	lookupStabilitySig:mean 	0.4196428557237
scalar Network.dyn_peer[328] 	lookupHopsSig:mean 	8.6666666666667
scalar Network.dyn_peer[329] 	lookupTimeSig:mean 	1.2
scalar Network.dyn_peer[329] 	lookupStabilitySig:mean 	-0.0027027130126953
scalar Network.dyn_peer[329] 	lookupHopsSig:mean 	11.5
scalar Network.dyn_peer[330] 	lookupTimeSig:mean 	1.16
scalar Network.dyn_peer[330] 	lookupStabilitySig:mean 	0.72674153745174
scalar Network.dyn_peer[330] 	lookupHopsSig:mean 	10.8
scalar Network.dyn_peer[331] 	lookupTimeSig:mean 	1.3
scalar Network.dyn_peer[331] 	lookupStabilitySig:mean 	0.79350310874482
scalar Network.dyn_peer[331] 	lookupHopsSig:mean 	12.333333333333
scalar Network.dyn_peer[332] 	lookupTimeSig:mean 	1.1
scalar Network.dyn_peer[332] 	lookupStabilitySig:mean 	0.65952786803246
scalar Network.dyn_peer[332] 	lookupHopsSig:mean 	10.2
scalar Network.dyn_peer[333] 	lookupTimeSig:mean 	0.66666666666667
scalar Network.dyn_peer[333] 	lookupStabilitySig:mean 	0.78554365318269
scalar Network.dyn_peer[333] 	lookupHopsSig:mean 	5.7777777777778
scalar Network.dyn_peer[334] 	lookupTimeSig:mean 	1.78
scalar Network.dyn_peer[334] 	lookupStabilitySig:mean 	0.67384160161018
scalar Network.dyn_peer[334] 	lookupHopsSig:mean 	17
scalar Network.dyn_peer[335] 	lookupTimeSig:mean 	1.1454545454545
scalar Network.dyn_peer[335] 	lookupStabilitySig:mean 	0.93341760464351
scalar Network.dyn_peer[335] 	lookupHopsSig:mean 	10.545454545455
scalar Network.dyn_peer[336] 	lookupTimeSig:mean 	1.55
scalar Network.dyn_peer[336] 	lookupStabilitySig:mean 	0.87276184442453
scalar Network.dyn_peer[336] 	lookupHopsSig:mean 	14.625
scalar Network.dyn_peer[337] 	lookupTimeSig:mean 	1.24
scalar Network.dyn_peer[337] 	lookupStabilitySig:mean 	0.86390738040209
scalar Network.dyn_peer[337] 	lookupHopsSig:mean 	11.6
scalar Network.dyn_peer[338] 	lookupTimeSig:mean 	0.9
scalar Network.dyn_peer[338] 	lookupStabilitySig:mean 	0.72841999679804
scalar Network.dyn_peer[338] 	lookupHopsSig:mean 	8.2
scalar Network.dyn_peer[339] 	lookupTimeSig:mean 	1.55
scalar Network.dyn_peer[339] 	lookupStabilitySig:mean 	0.90991921792738
scalar Network.dyn_peer[339] 	lookupHopsSig:mean 	14.625
scalar Network.dyn_peer[340] 	lookupTimeSig:mean 	1.775
scalar Network.dyn_peer[340] 	lookupStabilitySig:mean 	0.8225334463641
scalar Network.dyn_peer[340] 	lookupHopsSig:mean 	17
scalar Network.dyn_peer[341] 	lookupTimeSig:mean 	1.0333333333333
scalar Network.dyn_peer[341] 	lookupStabilitySig:mean 	0.86655240963834
scalar Network.dyn_peer[341] 	lookupHopsSig:mean 	9.5
scalar Network.dyn_peer[342] 	lookupTimeSig:mean 	0.94
scalar Network.dyn_peer[342] 	lookupStabilitySig:mean 	0.70497141256928
scalar Network.dyn_peer[342] 	lookupHopsSig:mean 	8.6
scalar Network.dyn_peer[343] 	lookupTimeSig:mean 	2
scalar Network.dyn_peer[343] 	lookupStabilitySig:mean 	0.5144329816103
scalar Network.dyn_peer[343] 	lookupHopsSig:mean 	19.5
scalar Network.dyn_peer[344] 	lookupTimeSig:mean 	1.1666666666667
scalar Network.dyn_peer[344] 	lookupStabilitySig:mean 	0.47792206704617
scalar Network.dyn_peer[344] 	lookupHopsSig:mean 	11
scalar Network.dyn_peer[345] 	lookupTimeSig:mean 	1.4555555555556
scalar Network.dyn_peer[345] 	lookupStabilitySig:mean 	0.8847246831283
scalar Network.dyn_peer[345] 	lookupHopsSig:mean 	13.666666666667
scalar Network.dyn_peer[346] 	lookupTimeSig:mean 	1.0555555555556
scalar Network.dyn_peer[346] 	lookupStabilitySig:mean 	0.82933539214234
scalar Network.dyn_peer[346] 	lookupHopsSig:mean 	9.6666666666667
scalar Network.dyn_peer[347] 	lookupTimeSig:mean 	1.8
scalar Network.dyn_peer[347] 	lookupStabilitySig:mean 	0.72927195951343
scalar Network.dyn_peer[347] 	lookupHopsSig:mean 	17.333333333333
scalar Network.dyn_peer[348] 	lookupTimeSig:mean 	1.0357142857143
scalar Network.dyn_peer[348] 	lookupStabilitySig:mean 	0.94474462775647
scalar Network.dyn_peer[348] 	lookupHopsSig:mean 	9.4285714285714
scalar Network.dyn_peer[349] 	lookupTimeSig:mean 	0.225
scalar Network.dyn_peer[349] 	lookupStabilitySig:mean 	0.71874999627471
scalar Network.dyn_peer[349] 	lookupHopsSig:mean 	1.5
scalar Network.dyn_peer[350] 	lookupTimeSig:mean 	1.275
scalar Network.dyn_peer[350] 	lookupStabilitySig:mean 	0.71096058376133
scalar Network.dyn_peer[350] 	lookupHopsSig:mean 	12
scalar Network.dyn_peer[351] 	lookupTimeSig:mean 	1.48
scalar Network.dyn_peer[351] 	lookupStabilitySig:mean 	0.78179560080171
scalar Network.dyn_peer[351] 	lookupHopsSig:mean 	14
scalar Network.dyn_peer[352] 	lookupTimeSig:mean 	1.1
scalar Network.dyn_peer[352] 	lookupStabilitySig:mean 	0.87060073378962
scalar Network.dyn_peer[352] 	lookupHopsSig:mean 	10.125
scalar Network.dyn_peer[353] 	lookupTimeSig:mean 	1
scalar Network.dyn_peer[353] 	lookupStabilitySig:mean 	0.81711896056575
scalar Network.dyn_peer[353] 	lookupHopsSig:mean 	9.1428571428571
scalar Network.dyn_peer[354] 	lookupTimeSig:mean 	1.2
scalar Network.dyn_peer[354] 	lookupStabilitySig:mean 	0.80550219491124
scalar Network.dyn_peer[354] 	lookupHopsSig:mean 	11.2
scalar Network.dyn_peer[355] 	lookupTimeSig:mean 	1.475
scalar Network.dyn_peer[355] 	lookupStabilitySig:mean 	0.61241824459285
scalar Network.dyn_peer[355] 	lookupHopsSig:mean 	14
scalar Network.dyn_peer[356] 	lookupTimeSig:mean 	0.7
scalar Network.dyn_peer[356] 	lookupStabilitySig:mean 	0.7720001252989
scalar Network.dyn_peer[356] 	lookupHopsSig:mean 	6.1666666666667
scalar Network.dyn_peer[357] 	lookupTimeSig:mean 	2.35
scalar Network.dyn_peer[357] 	lookupStabilitySig:mean 	0.4448529407382
scalar Network.dyn_peer[357] 	lookupHopsSig:mean 	23
scalar Network.dyn_peer[358] 	lookupTimeSig:mean 	1.2666666666667
scalar Network.dyn_peer[358] 	lookupStabilitySig:mean 	0.84015982411802
scalar Network.dyn_peer[358] 	lookupHopsSig:mean 	11.833333333333
scalar Network.dyn_peer[359] 	lookupTimeSig:mean 	1.7333333333333
scalar Network.dyn_peer[359] 	lookupStabilitySig:mean 	0.7903430176278
scalar Network.dyn_peer[359] 	lookupHopsSig:mean 	16.666666666667
scalar Network.dyn_peer[360] 	lookupTimeSig:mean 	1.25
scalar Network.dyn_peer[360] 	lookupStabilitySig:mean 	0.16923074424267
scalar Network.dyn_peer[360] 	lookupHopsSig:mean 	12
scalar Network.dyn_peer[361] 	lookupTimeSig:mean 	1.9
scalar Network.dyn_peer[361] 	lookupStabilitySig:mean 	0.82840921264142
scalar Network.dyn_peer[361] 	lookupHopsSig:mean 	18.25
scalar Network.dyn_peer[362] 	lookupTimeSig:mean 	1.7
scalar Network.dyn_peer[362] 	lookupStabilitySig:mean 	0.90009056637064
scalar Network.dyn_peer[362] 	lookupHopsSig:mean 	16.166666666667
scalar Network.dyn_peer[363] 	lookupTimeSig:mean 	0.625
scalar Network.dyn_peer[363] 	lookupStabilitySig:mean 	0.73687718249857
scalar Network.dyn_peer[363] 	lookupHopsSig:mean 	5.5
scalar Network.dyn_peer[364] 	lookupTimeSig:mean 	1.2
scalar Network.dyn_peer[364] 	lookupStabilitySig:mean 	0.90717066638172
scalar Network.dyn_peer[364] 	lookupHopsSig:mean 	11.2
scalar Network.dyn_peer[365] 	lookupTimeSig:mean 	1.4
scalar Network.dyn_peer[365] 	lookupStabilitySig:mean 	0.18571425974369
scalar Network.dyn_peer[365] 	lookupHopsSig:mean 	13.5
scalar Network.dyn_peer[366] 	lookupTimeSig:mean 	1.7
scalar Network.dyn_peer[366] 	lookupStabilitySig:mean 	0.66652175039053
scalar Network.dyn_peer[366] 	lookupHopsSig:mean 	16.5
scalar Network.dyn_peer[367] 	lookupTimeSig:mean 	1.1636363636364
scalar Network.dyn_peer[367] 	lookupStabilitySig:mean 	0.91945139576935
scalar Network.dyn_peer[367] 	lookupHopsSig:mean 	10.727272727273
scalar Network.dyn_peer[368] 	lookupTimeSig:mean 	0.93846153846154
scalar Network.dyn_peer[368] 	lookupStabilitySig:mean 	0.95304036049101
scalar Network.dyn_peer[368] 	lookupHopsSig:mean 	8.4615384615385
scalar Network.dyn_peer[369] 	lookupTimeSig:mean 	0.7875
scalar Network.dyn_peer[369] 	lookupStabilitySig:mean 	0.85634235583711
scalar Network.dyn_peer[369] 	lookupHopsSig:mean 	7
scalar Network.dyn_peer[370] 	lookupTimeSig:mean 	1.6666666666667
scalar Network.dyn_peer[370] 	lookupStabilitySig:mean 	0.73131720970074
scalar Network.dyn_peer[370] 	lookupHopsSig:mean 	16
scalar Network.dyn_peer[371] 	lookupTimeSig:mean 	1.0375
scalar Network.dyn_peer[371] 	lookupStabilitySig:mean 	0.76943173550535
scalar Network.dyn_peer[371] 	lookupHopsSig:mean 	9.5
scalar Network.dyn_peer[372] 	lookupTimeSig:mean 	1.0625
scalar Network.dyn_peer[372] 	lookupStabilitySig:mean 	0.90447194676381
scalar Network.dyn_peer[372] 	lookupHopsSig:mean 	9.75
scalar Network.dyn_peer[373] 	lookupTimeSig:mean 	1.7714285714286
scalar Network.dyn_peer[373] 	lookupStabilitySig:mean 	0.9152010797656
scalar Network.dyn_peer[373] 	lookupHopsSig:mean 	16.857142857143
scalar Network.dyn_peer[374] 	lookupTimeSig:mean 	1.0545454545455
scalar Network.dyn_peer[374] 	lookupStabilitySig:mean 	0.93283247532831
scalar Network.dyn_peer[374] 	lookupHopsSig:mean 	9.6363636363636
scalar Network.dyn_peer[375] 	lookupTimeSig:mean 	1.9
scalar Network.dyn_peer[375] 	lookupStabilitySig:mean 	0.84253087453544
scalar Network.dyn_peer[375] 	lookupHopsSig:mean 	18.25
scalar Network.dyn_peer[376] 	lookupTimeSig:mean 	0.53333333333333
scalar Network.dyn_peer[376] 	lookupStabilitySig:mean 	0.49761902789275
scalar Network.dyn_peer[376] 	lookupHopsSig:mean 	4.6666666666667
scalar Network.dyn_peer[377] 	lookupTimeSig:mean 	1.2857142857143
scalar Network.dyn_peer[377] 	lookupStabilitySig:mean 	0.87503743091864
scalar Network.dyn_peer[377] 	lookupHopsSig:mean 	12
scalar Network.dyn_peer[378] 	lookupTimeSig:mean 	1.11
scalar Network.dyn_peer[378] 	lookupStabilitySig:mean 	0.94707480301149
scalar Network.dyn_peer[378] 	lookupHopsSig:mean 	10.2
scalar Network.dyn_peer[379] 	lookupTimeSig:mean 	1.1714285714286
scalar Network.dyn_peer[379] 	lookupStabilitySig:mean 	0.82711360297565
scalar Network.dyn_peer[379] 	lookupHopsSig:mean 	10.857142857143
scalar Network.dyn_peer[380] 	lookupTimeSig:mean 	2.2333333333333
scalar Network.dyn_peer[380] 	lookupStabilitySig:mean 	0.71687559038401
scalar Network.dyn_peer[380] 	lookupHopsSig:mean 	21.666666666667
scalar Network.dyn_peer[381] 	lookupTimeSig:mean 	0.95
scalar Network.dyn_peer[381] 	lookupStabilitySig:mean 	0.70091463811696
scalar Network.dyn_peer[381] 	lookupHopsSig:mean 	8.75
scalar Network.dyn_peer[382] 	lookupTimeSig:mean 	1.22
scalar Network.dyn_peer[382] 	lookupStabilitySig:mean 	0.77598565071821
scalar Network.dyn_peer[382] 	lookupHopsSig:mean 	11.4
scalar Network.dyn_peer[383] 	lookupTimeSig:mean 	0.91666666666667
scalar Network.dyn_peer[383] 	lookupStabilitySig:mean 	0.90734297712334
scalar Network.dyn_peer[383] 	lookupHopsSig:mean 	8.25
scalar Network.dyn_peer[384] 	lookupTimeSig:mean 	1.175
scalar Network.dyn_peer[384] 	lookupStabilitySig:mean 	0.55603622272611
scalar Network.dyn_peer[384] 	lookupHopsSig:mean 	11
scalar Network.dyn_peer[385] 	lookupTimeSig:mean 	1.05
scalar Network.dyn_peer[385] 	lookupStabilitySig:mean 	0.096875011920929
scalar Network.dyn_peer[385] 	lookupHopsSig:mean 	10
scalar Network.dyn_peer[386] 	lookupTimeSig:mean 	1.1444444444444
scalar Network.dyn_peer[386] 	lookupStabilitySig:mean 	0.84160214036496
scalar Network.dyn_peer[386] 	lookupHopsSig:mean 	10.555555555556
scalar Network.dyn_peer[387] 	lookupTimeSig:mean 	1.6142857142857
scalar Network.dyn_peer[387] 	lookupStabilitySig:mean 	0.9288190371756
scalar Network.dyn_peer[387] 	lookupHopsSig:mean 	15.285714285714
scalar Network.dyn_peer[388] 	lookupTimeSig:mean 	1.75
scalar Network.dyn_peer[388] 	lookupStabilitySig:mean 	0.75054316129535
scalar Network.dyn_peer[388] 	lookupHopsSig:mean 	16.75
scalar Network.dyn_peer[389] 	lookupTimeSig:mean 	1.35
scalar Network.dyn_peer[389] 	lookupStabilitySig:mean 	0.83320769884934
scalar Network.dyn_peer[389] 	lookupHopsSig:mean 	12.666666666667
scalar Network.dyn_peer[390] 	lookupTimeSig:mean 	1.175
scalar Network.dyn_peer[390] 	lookupStabilitySig:mean 	0.87177602700346
scalar Network.dyn_peer[390] 	lookupHopsSig:mean 	10.833333333333
scalar Network.dyn_peer[391] 	lookupTimeSig:mean 	1.1
scalar Network.dyn_peer[391] 	lookupStabilitySig:mean 	0.93052494439429
scalar Network.dyn_peer[391] 	lookupHopsSig:mean 	10.142857142857
scalar Network.dyn_peer[392] 	lookupTimeSig:mean 	1.925
scalar Network.dyn_peer[392] 	lookupStabilitySig:mean 	0.81704082991928
scalar Network.dyn_peer[392] 	lookupHopsSig:mean 	18.5
scalar Network.dyn_peer[393] 	lookupTimeSig:mean 	1.22
scalar Network.dyn_peer[393] 	lookupStabilitySig:mean 	0.72245641686022
scalar Network.dyn_peer[393] 	lookupHopsSig:mean 	11.4
scalar Network.dyn_peer[394] 	lookupTimeSig:mean 	1.0166666666667
scalar Network.dyn_peer[394] 	lookupStabilitySig:mean 	0.68697766773403
scalar Network.dyn_peer[394] 	lookupHopsSig:mean 	9.3333333333333
scalar Network.dyn_peer[395] 	lookupTimeSig:mean 	0.86
scalar Network.dyn_peer[395] 	lookupStabilitySig:mean 	0.67278377227485
scalar Network.dyn_peer[395] 	lookupHopsSig:mean 	7.8
scalar Network.dyn_peer[396] 	lookupTimeSig:mean 	1.1
scalar Network.dyn_peer[396] 	lookupStabilitySig:mean 	0.83047197419884
scalar Network.dyn_peer[396] 	lookupHopsSig:mean 	10.142857142857
scalar Network.dyn_peer[397] 	lookupTimeSig:mean 	1.6666666666667
scalar Network.dyn_peer[397] 	lookupStabilitySig:mean 	0.78236091136932
scalar Network.dyn_peer[397] 	lookupHopsSig:mean 	16
scalar Network.dyn_peer[398] 	lookupTimeSig:mean 	1.7
scalar Network.dyn_peer[398] 	lookupStabilitySig:mean 	0.84880750142038
scalar Network.dyn_peer[398] 	lookupHopsSig:mean 	16.2
scalar Network.dyn_peer[399] 	lookupTimeSig:mean 	1.225
scalar Network.dyn_peer[399] 	lookupStabilitySig:mean 	0.74038716871291
scalar Network.dyn_peer[399] 	lookupHopsSig:mean 	11.5
scalar Network.dyn_peer[400] 	lookupTimeSig:mean 	-nan
scalar Network.dyn_peer[400] 	lookupStabilitySig:mean 	-nan
scalar Network.dyn_peer[400] 	lookupHopsSig:mean 	-nan
scalar Network.dyn_peer[401] 	lookupTimeSig:mean 	-nan
scalar Network.dyn_peer[401] 	lookupStabilitySig:mean 	-nan
scalar Network.dyn_peer[401] 	lookupHopsSig:mean 	-nan
scalar Network.dyn_peer[402] 	lookupTimeSig:mean 	-nan
scalar Network.dyn_peer[402] 	lookupStabilitySig:mean 	-nan
scalar Network.dyn_peer[402] 	lookupHopsSig:mean 	-nan
scalar Network.dyn_peer[403] 	lookupTimeSig:mean 	-nan
scalar Network.dyn_peer[403] 	lookupStabilitySig:mean 	-nan
scalar Network.dyn_peer[403] 	lookupHopsSig:mean 	-nan
scalar Network.dyn_peer[404] 	lookupTimeSig:mean 	-nan
scalar Network.dyn_peer[404] 	lookupStabilitySig:mean 	-nan
scalar Network.dyn_peer[404] 	lookupHopsSig:mean 	-nan
scalar Network.dyn_peer[405] 	lookupTimeSig:mean 	-nan
scalar Network.dyn_peer[405] 	lookupStabilitySig:mean 	-nan
scalar Network.dyn_peer[405] 	lookupHopsSig:mean 	-nan
scalar Network.dyn_peer[406] 	lookupTimeSig:mean 	-nan
scalar Network.dyn_peer[406] 	lookupStabilitySig:mean 	-nan
scalar Network.dyn_peer[406] 	lookupHopsSig:mean 	-nan
scalar Network.dyn_peer[407] 	lookupTimeSig:mean 	-nan
scalar Network.dyn_peer[407] 	lookupStabilitySig:mean 	-nan
scalar Network.dyn_peer[407] 	lookupHopsSig:mean 	-nan
scalar Network.dyn_peer[408] 	lookupTimeSig:mean 	-nan
scalar Network.dyn_peer[408] 	lookupStabilitySig:mean 	-nan
scalar Network.dyn_peer[408] 	lookupHopsSig:mean 	-nan
scalar Network.dyn_peer[409] 	lookupTimeSig:mean 	-nan
scalar Network.dyn_peer[409] 	lookupStabilitySig:mean 	-nan
scalar Network.dyn_peer[409] 	lookupHopsSig:mean 	-nan
scalar Network.dyn_peer[410] 	lookupTimeSig:mean 	-nan
scalar Network.dyn_peer[410] 	lookupStabilitySig:mean 	-nan
scalar Network.dyn_peer[410] 	lookupHopsSig:mean 	-nan
scalar Network.dyn_peer[411] 	lookupTimeSig:mean 	-nan
scalar Network.dyn_peer[411] 	lookupStabilitySig:mean 	-nan
scalar Network.dyn_peer[411] 	lookupHopsSig:mean 	-nan
scalar Network.dyn_peer[412] 	lookupTimeSig:mean 	-nan
scalar Network.dyn_peer[412] 	lookupStabilitySig:mean 	-nan
scalar Network.dyn_peer[412] 	lookupHopsSig:mean 	-nan
scalar Network.dyn_peer[413] 	lookupTimeSig:mean 	-nan
scalar Network.dyn_peer[413] 	lookupStabilitySig:mean 	-nan
scalar Network.dyn_peer[413] 	lookupHopsSig:mean 	-nan
scalar Network.dyn_peer[414] 	lookupTimeSig:mean 	-nan
scalar Network.dyn_peer[414] 	lookupStabilitySig:mean 	-nan
scalar Network.dyn_peer[414] 	lookupHopsSig:mean 	-nan
scalar Network.dyn_peer[415] 	lookupTimeSig:mean 	-nan
scalar Network.dyn_peer[415] 	lookupStabilitySig:mean 	-nan
scalar Network.dyn_peer[415] 	lookupHopsSig:mean 	-nan
scalar Network.dyn_peer[416] 	lookupTimeSig:mean 	-nan
scalar Network.dyn_peer[416] 	lookupStabilitySig:mean 	-nan
scalar Network.dyn_peer[416] 	lookupHopsSig:mean 	-nan
scalar Network.dyn_peer[417] 	lookupTimeSig:mean 	-nan
scalar Network.dyn_peer[417] 	lookupStabilitySig:mean 	-nan
scalar Network.dyn_peer[417] 	lookupHopsSig:mean 	-nan
scalar Network.dyn_peer[418] 	lookupTimeSig:mean 	-nan
scalar Network.dyn_peer[418] 	lookupStabilitySig:mean 	-nan
scalar Network.dyn_peer[418] 	lookupHopsSig:mean 	-nan
scalar Network.dyn_peer[419] 	lookupTimeSig:mean 	-nan
scalar Network.dyn_peer[419] 	lookupStabilitySig:mean 	-nan
scalar Network.dyn_peer[419] 	lookupHopsSig:mean 	-nan
scalar Network.dyn_peer[420] 	lookupTimeSig:mean 	-nan
scalar Network.dyn_peer[420] 	lookupStabilitySig:mean 	-nan
scalar Network.dyn_peer[420] 	lookupHopsSig:mean 	-nan
scalar Network.dyn_peer[421] 	lookupTimeSig:mean 	-nan
scalar Network.dyn_peer[421] 	lookupStabilitySig:mean 	-nan
scalar Network.dyn_peer[421] 	lookupHopsSig:mean 	-nan
scalar Network.dyn_peer[422] 	lookupTimeSig:mean 	-nan
scalar Network.dyn_peer[422] 	lookupStabilitySig:mean 	-nan
scalar Network.dyn_peer[422] 	lookupHopsSig:mean 	-nan
scalar Network.dyn_peer[423] 	lookupTimeSig:mean 	-nan
scalar Network.dyn_peer[423] 	lookupStabilitySig:mean 	-nan
scalar Network.dyn_peer[423] 	lookupHopsSig:mean 	-nan
scalar Network.dyn_peer[424] 	lookupTimeSig:mean 	-nan
scalar Network.dyn_peer[424] 	lookupStabilitySig:mean 	-nan
scalar Network.dyn_peer[424] 	lookupHopsSig:mean 	-nan
scalar Network.dyn_peer[425] 	lookupTimeSig:mean 	-nan
[...]
scalar Network.dyn_peer[883] 	lookupTimeSig:mean 	-nan
scalar Network.dyn_peer[883] 	lookupStabilitySig:mean 	-nan
scalar Network.dyn_peer[883] 	lookupHopsSig:mean 	-nan
scalar Network.dyn_peer[884] 	lookupTimeSig:mean 	-nan
scalar Network.dyn_peer[884] 	lookupStabilitySig:mean 	-nan
scalar Network.dyn_peer[884] 	lookupHopsSig:mean 	-nan
scalar Network.dyn_peer[885] 	lookupTimeSig:mean 	-nan
scalar Network.dyn_peer[885] 	lookupStabilitySig:mean 	-nan
scalar Network.dyn_peer[885] 	lookupHopsSig:mean 	-nan
scalar Network.dyn_peer[886] 	lookupTimeSig:mean 	-nan
scalar Network.dyn_peer[886] 	lookupStabilitySig:mean 	-nan
scalar Network.dyn_peer[886] 	lookupHopsSig:mean 	-nan
scalar Network.dyn_peer[887] 	lookupTimeSig:mean 	-nan
scalar Network.dyn_peer[887] 	lookupStabilitySig:mean 	-nan
scalar Network.dyn_peer[887] 	lookupHopsSig:mean 	-nan
scalar Network.dyn_peer[888] 	lookupTimeSig:mean 	-nan
scalar Network.dyn_peer[888] 	lookupStabilitySig:mean 	-nan
scalar Network.dyn_peer[888] 	lookupHopsSig:mean 	-nan
scalar Network.dyn_peer[889] 	lookupTimeSig:mean 	-nan
scalar Network.dyn_peer[889] 	lookupStabilitySig:mean 	-nan
scalar Network.dyn_peer[889] 	lookupHopsSig:mean 	-nan
scalar Network.dyn_peer[890] 	lookupTimeSig:mean 	-nan
scalar Network.dyn_peer[890] 	lookupStabilitySig:mean 	-nan
scalar Network.dyn_peer[890] 	lookupHopsSig:mean 	-nan
scalar Network.dyn_peer[891] 	lookupTimeSig:mean 	-nan
scalar Network.dyn_peer[891] 	lookupStabilitySig:mean 	-nan
scalar Network.dyn_peer[891] 	lookupHopsSig:mean 	-nan
scalar Network.dyn_peer[892] 	lookupTimeSig:mean 	-nan
scalar Network.dyn_peer[892] 	lookupStabilitySig:mean 	-nan
scalar Network.dyn_peer[892] 	lookupHopsSig:mean 	-nan
scalar Network.dyn_peer[893] 	lookupTimeSig:mean 	-nan
scalar Network.dyn_peer[893] 	lookupStabilitySig:mean 	-nan
scalar Network.dyn_peer[893] 	lookupHopsSig:mean 	-nan
scalar Network.dyn_peer[894] 	lookupTimeSig:mean 	-nan
scalar Network.dyn_peer[894] 	lookupStabilitySig:mean 	-nan
scalar Network.dyn_peer[894] 	lookupHopsSig:mean 	-nan
scalar Network.dyn_peer[895] 	lookupTimeSig:mean 	-nan
scalar Network.dyn_peer[895] 	lookupStabilitySig:mean 	-nan
scalar Network.dyn_peer[895] 	lookupHopsSig:mean 	-nan
scalar Network.dyn_peer[896] 	lookupTimeSig:mean 	-nan
scalar Network.dyn_peer[896] 	lookupStabilitySig:mean 	-nan
scalar Network.dyn_peer[896] 	lookupHopsSig:mean 	-nan
scalar Network.dyn_peer[897] 	lookupTimeSig:mean 	-nan
scalar Network.dyn_peer[897] 	lookupStabilitySig:mean 	-nan
scalar Network.dyn_peer[897] 	lookupHopsSig:mean 	-nan
scalar Network.dyn_peer[898] 	lookupTimeSig:mean 	-nan
scalar Network.dyn_peer[898] 	lookupStabilitySig:mean 	-nan
scalar Network.dyn_peer[898] 	lookupHopsSig:mean 	-nan
scalar Network.dyn_peer[899] 	lookupTimeSig:mean 	-nan
scalar Network.dyn_peer[899] 	lookupStabilitySig:mean 	-nan
scalar Network.dyn_peer[899] 	lookupHopsSig:mean 	-nan
scalar Network.dyn_peer[900] 	lookupTimeSig:mean 	-nan
scalar Network.dyn_peer[900] 	lookupStabilitySig:mean 	-nan
scalar Network.dyn_peer[900] 	lookupHopsSig:mean 	-nan
scalar Network.dyn_peer[901] 	lookupTimeSig:mean 	-nan
scalar Network.dyn_peer[901] 	lookupStabilitySig:mean 	-nan
scalar Network.dyn_peer[901] 	lookupHopsSig:mean 	-nan
scalar Network.dyn_peer[902] 	lookupTimeSig:mean 	-nan
scalar Network.dyn_peer[902] 	lookupStabilitySig:mean 	-nan
scalar Network.dyn_peer[902] 	lookupHopsSig:mean 	-nan
scalar Network.dyn_peer[903] 	lookupTimeSig:mean 	-nan
scalar Network.dyn_peer[903] 	lookupStabilitySig:mean 	-nan
scalar Network.dyn_peer[903] 	lookupHopsSig:mean 	-nan
scalar Network.dyn_peer[904] 	lookupTimeSig:mean 	-nan
scalar Network.dyn_peer[904] 	lookupStabilitySig:mean 	-nan
scalar Network.dyn_peer[904] 	lookupHopsSig:mean 	-nan
scalar Network.dyn_peer[905] 	lookupTimeSig:mean 	-nan
scalar Network.dyn_peer[905] 	lookupStabilitySig:mean 	-nan
scalar Network.dyn_peer[905] 	lookupHopsSig:mean 	-nan
scalar Network.dyn_peer[906] 	lookupTimeSig:mean 	-nan
scalar Network.dyn_peer[906] 	lookupStabilitySig:mean 	-nan
scalar Network.dyn_peer[906] 	lookupHopsSig:mean 	-nan
scalar Network.dyn_peer[907] 	lookupTimeSig:mean 	-nan
scalar Network.dyn_peer[907] 	lookupStabilitySig:mean 	-nan
scalar Network.dyn_peer[907] 	lookupHopsSig:mean 	-nan
scalar Network.dyn_peer[908] 	lookupTimeSig:mean 	-nan
scalar Network.dyn_peer[908] 	lookupStabilitySig:mean 	-nan
scalar Network.dyn_peer[908] 	lookupHopsSig:mean 	-nan
scalar Network.dyn_peer[909] 	lookupTimeSig:mean 	-nan
scalar Network.dyn_peer[909] 	lookupStabilitySig:mean 	-nan
scalar Network.dyn_peer[909] 	lookupHopsSig:mean 	-nan
scalar Network.dyn_peer[910] 	lookupTimeSig:mean 	-nan
scalar Network.dyn_peer[910] 	lookupStabilitySig:mean 	-nan
scalar Network.dyn_peer[910] 	lookupHopsSig:mean 	-nan
scalar Network.dyn_peer[911] 	lookupTimeSig:mean 	-nan
scalar Network.dyn_peer[911] 	lookupStabilitySig:mean 	-nan
scalar Network.dyn_peer[911] 	lookupHopsSig:mean 	-nan
scalar Network.dyn_peer[912] 	lookupTimeSig:mean 	-nan
scalar Network.dyn_peer[912] 	lookupStabilitySig:mean 	-nan
scalar Network.dyn_peer[912] 	lookupHopsSig:mean 	-nan
scalar Network.dyn_peer[913] 	lookupTimeSig:mean 	-nan
scalar Network.dyn_peer[913] 	lookupStabilitySig:mean 	-nan
scalar Network.dyn_peer[913] 	lookupHopsSig:mean 	-nan
scalar Network.dyn_peer[914] 	lookupTimeSig:mean 	-nan
scalar Network.dyn_peer[914] 	lookupStabilitySig:mean 	-nan
scalar Network.dyn_peer[914] 	lookupHopsSig:mean 	-nan
scalar Network.dyn_peer[915] 	lookupTimeSig:mean 	-nan
scalar Network.dyn_peer[915] 	lookupStabilitySig:mean 	-nan
scalar Network.dyn_peer[915] 	lookupHopsSig:mean 	-nan
scalar Network.dyn_peer[916] 	lookupTimeSig:mean 	-nan
scalar Network.dyn_peer[916] 	lookupStabilitySig:mean 	-nan
scalar Network.dyn_peer[916] 	lookupHopsSig:mean 	-nan
scalar Network.dyn_peer[917] 	lookupTimeSig:mean 	-nan
scalar Network.dyn_peer[917] 	lookupStabilitySig:mean 	-nan
scalar Network.dyn_peer[917] 	lookupHopsSig:mean 	-nan
scalar Network.dyn_peer[918] 	lookupTimeSig:mean 	-nan
scalar Network.dyn_peer[918] 	lookupStabilitySig:mean 	-nan
scalar Network.dyn_peer[918] 	lookupHopsSig:mean 	-nan
scalar Network.dyn_peer[919] 	lookupTimeSig:mean 	-nan
scalar Network.dyn_peer[919] 	lookupStabilitySig:mean 	-nan
scalar Network.dyn_peer[919] 	lookupHopsSig:mean 	-nan
scalar Network.dyn_peer[920] 	lookupTimeSig:mean 	-nan
scalar Network.dyn_peer[920] 	lookupStabilitySig:mean 	-nan
scalar Network.dyn_peer[920] 	lookupHopsSig:mean 	-nan
scalar Network.dyn_peer[921] 	lookupTimeSig:mean 	-nan
scalar Network.dyn_peer[921] 	lookupStabilitySig:mean 	-nan
scalar Network.dyn_peer[921] 	lookupHopsSig:mean 	-nan
scalar Network.dyn_peer[922] 	lookupTimeSig:mean 	-nan
scalar Network.dyn_peer[922] 	lookupStabilitySig:mean 	-nan
scalar Network.dyn_peer[922] 	lookupHopsSig:mean 	-nan
scalar Network.dyn_peer[923] 	lookupTimeSig:mean 	-nan
scalar Network.dyn_peer[923] 	lookupStabilitySig:mean 	-nan
scalar Network.dyn_peer[923] 	lookupHopsSig:mean 	-nan
scalar Network.dyn_peer[924] 	lookupTimeSig:mean 	-nan
scalar Network.dyn_peer[924] 	lookupStabilitySig:mean 	-nan
scalar Network.dyn_peer[924] 	lookupHopsSig:mean 	-nan
scalar Network.dyn_peer[925] 	lookupTimeSig:mean 	-nan
scalar Network.dyn_peer[925] 	lookupStabilitySig:mean 	-nan
scalar Network.dyn_peer[925] 	lookupHopsSig:mean 	-nan
scalar Network.dyn_peer[926] 	lookupTimeSig:mean 	-nan
scalar Network.dyn_peer[926] 	lookupStabilitySig:mean 	-nan
scalar Network.dyn_peer[926] 	lookupHopsSig:mean 	-nan
scalar Network.dyn_peer[927] 	lookupTimeSig:mean 	-nan
scalar Network.dyn_peer[927] 	lookupStabilitySig:mean 	-nan
scalar Network.dyn_peer[927] 	lookupHopsSig:mean 	-nan
scalar Network.dyn_peer[928] 	lookupTimeSig:mean 	-nan
scalar Network.dyn_peer[928] 	lookupStabilitySig:mean 	-nan
scalar Network.dyn_peer[928] 	lookupHopsSig:mean 	-nan
scalar Network.dyn_peer[929] 	lookupTimeSig:mean 	-nan
scalar Network.dyn_peer[929] 	lookupStabilitySig:mean 	-nan
scalar Network.dyn_peer[929] 	lookupHopsSig:mean 	-nan
scalar Network.dyn_peer[930] 	lookupTimeSig:mean 	-nan
scalar Network.dyn_peer[930] 	lookupStabilitySig:mean 	-nan
scalar Network.dyn_peer[930] 	lookupHopsSig:mean 	-nan
scalar Network.dyn_peer[931] 	lookupTimeSig:mean 	-nan
scalar Network.dyn_peer[931] 	lookupStabilitySig:mean 	-nan
scalar Network.dyn_peer[931] 	lookupHopsSig:mean 	-nan
scalar Network.dyn_peer[932] 	lookupTimeSig:mean 	-nan
scalar Network.dyn_peer[932] 	lookupStabilitySig:mean 	-nan
scalar Network.dyn_peer[932] 	lookupHopsSig:mean 	-nan
scalar Network.dyn_peer[933] 	lookupTimeSig:mean 	-nan
scalar Network.dyn_peer[933] 	lookupStabilitySig:mean 	-nan
scalar Network.dyn_peer[933] 	lookupHopsSig:mean 	-nan
scalar Network.dyn_peer[934] 	lookupTimeSig:mean 	-nan
scalar Network.dyn_peer[934] 	lookupStabilitySig:mean 	-nan
scalar Network.dyn_peer[934] 	lookupHopsSig:mean 	-nan
scalar Network.dyn_peer[935] 	lookupTimeSig:mean 	-nan
scalar Network.dyn_peer[935] 	lookupStabilitySig:mean 	-nan
scalar Network.dyn_peer[935] 	lookupHopsSig:mean 	-nan
scalar Network.dyn_peer[936] 	lookupTimeSig:mean 	-nan
scalar Network.dyn_peer[936] 	lookupStabilitySig:mean 	-nan
scalar Network.dyn_peer[936] 	lookupHopsSig:mean 	-nan
scalar Network.dyn_peer[937] 	lookupTimeSig:mean 	-nan
scalar Network.dyn_peer[937] 	lookupStabilitySig:mean 	-nan
scalar Network.dyn_peer[937] 	lookupHopsSig:mean 	-nan
scalar Network.dyn_peer[938] 	lookupTimeSig:mean 	-nan
scalar Network.dyn_peer[938] 	lookupStabilitySig:mean 	-nan
scalar Network.dyn_peer[938] 	lookupHopsSig:mean 	-nan
scalar Network.dyn_peer[939] 	lookupTimeSig:mean 	-nan
scalar Network.dyn_peer[939] 	lookupStabilitySig:mean 	-nan
scalar Network.dyn_peer[939] 	lookupHopsSig:mean 	-nan
scalar Network.dyn_peer[940] 	lookupTimeSig:mean 	-nan
scalar Network.dyn_peer[940] 	lookupStabilitySig:mean 	-nan
scalar Network.dyn_peer[940] 	lookupHopsSig:mean 	-nan
scalar Network.dyn_peer[941] 	lookupTimeSig:mean 	-nan
scalar Network.dyn_peer[941] 	lookupStabilitySig:mean 	-nan
scalar Network.dyn_peer[941] 	lookupHopsSig:mean 	-nan
scalar Network.dyn_peer[942] 	lookupTimeSig:mean 	-nan
scalar Network.dyn_peer[942] 	lookupStabilitySig:mean 	-nan
scalar Network.dyn_peer[942] 	lookupHopsSig:mean 	-nan
scalar Network.dyn_peer[943] 	lookupTimeSig:mean 	-nan
scalar Network.dyn_peer[943] 	lookupStabilitySig:mean 	-nan
scalar Network.dyn_peer[943] 	lookupHopsSig:mean 	-nan
scalar Network.dyn_peer[944] 	lookupTimeSig:mean 	-nan
scalar Network.dyn_peer[944] 	lookupStabilitySig:mean 	-nan
scalar Network.dyn_peer[944] 	lookupHopsSig:mean 	-nan
scalar Network.dyn_peer[945] 	lookupTimeSig:mean 	-nan
scalar Network.dyn_peer[945] 	lookupStabilitySig:mean 	-nan
scalar Network.dyn_peer[945] 	lookupHopsSig:mean 	-nan
scalar Network.dyn_peer[946] 	lookupTimeSig:mean 	-nan
scalar Network.dyn_peer[946] 	lookupStabilitySig:mean 	-nan
scalar Network.dyn_peer[946] 	lookupHopsSig:mean 	-nan
scalar Network.dyn_peer[947] 	lookupTimeSig:mean 	-nan
scalar Network.dyn_peer[947] 	lookupStabilitySig:mean 	-nan
scalar Network.dyn_peer[947] 	lookupHopsSig:mean 	-nan
scalar Network.dyn_peer[948] 	lookupTimeSig:mean 	-nan
scalar Network.dyn_peer[948] 	lookupStabilitySig:mean 	-nan
scalar Network.dyn_peer[948] 	lookupHopsSig:mean 	-nan
scalar Network.dyn_peer[949] 	lookupTimeSig:mean 	-nan
scalar Network.dyn_peer[949] 	lookupStabilitySig:mean 	-nan
scalar Network.dyn_peer[949] 	lookupHopsSig:mean 	-nan
scalar Network.dyn_peer[950] 	lookupTimeSig:mean 	-nan
scalar Network.dyn_peer[950] 	lookupStabilitySig:mean 	-nan
scalar Network.dyn_peer[950] 	lookupHopsSig:mean 	-nan
scalar Network.dyn_peer[951] 	lookupTimeSig:mean 	-nan
scalar Network.dyn_peer[951] 	lookupStabilitySig:mean 	-nan
scalar Network.dyn_peer[951] 	lookupHopsSig:mean 	-nan
scalar Network.dyn_peer[952] 	lookupTimeSig:mean 	-nan
scalar Network.dyn_peer[952] 	lookupStabilitySig:mean 	-nan
scalar Network.dyn_peer[952] 	lookupHopsSig:mean 	-nan
scalar Network.dyn_peer[953] 	lookupTimeSig:mean 	-nan
scalar Network.dyn_peer[953] 	lookupStabilitySig:mean 	-nan
scalar Network.dyn_peer[953] 	lookupHopsSig:mean 	-nan
scalar Network.dyn_peer[954] 	lookupTimeSig:mean 	-nan
scalar Network.dyn_peer[954] 	lookupStabilitySig:mean 	-nan
scalar Network.dyn_peer[954] 	lookupHopsSig:mean 	-nan
scalar Network.dyn_peer[955] 	lookupTimeSig:mean 	-nan
scalar Network.dyn_peer[955] 	lookupStabilitySig:mean 	-nan
scalar Network.dyn_peer[955] 	lookupHopsSig:mean 	-nan
scalar Network.dyn_peer[956] 	lookupTimeSig:mean 	-nan
scalar Network.dyn_peer[956] 	lookupStabilitySig:mean 	-nan
scalar Network.dyn_peer[956] 	lookupHopsSig:mean 	-nan
scalar Network.dyn_peer[957] 	lookupTimeSig:mean 	-nan
scalar Network.dyn_peer[957] 	lookupStabilitySig:mean 	-nan
scalar Network.dyn_peer[957] 	lookupHopsSig:mean 	-nan
scalar Network.dyn_peer[958] 	lookupTimeSig:mean 	-nan
scalar Network.dyn_peer[958] 	lookupStabilitySig:mean 	-nan
scalar Network.dyn_peer[958] 	lookupHopsSig:mean 	-nan
scalar Network.dyn_peer[959] 	lookupTimeSig:mean 	-nan
scalar Network.dyn_peer[959] 	lookupStabilitySig:mean 	-nan
scalar Network.dyn_peer[959] 	lookupHopsSig:mean 	-nan
scalar Network.dyn_peer[960] 	lookupTimeSig:mean 	-nan
scalar Network.dyn_peer[960] 	lookupStabilitySig:mean 	-nan
scalar Network.dyn_peer[960] 	lookupHopsSig:mean 	-nan
scalar Network.dyn_peer[961] 	lookupTimeSig:mean 	-nan
scalar Network.dyn_peer[961] 	lookupStabilitySig:mean 	-nan
scalar Network.dyn_peer[961] 	lookupHopsSig:mean 	-nan
scalar Network.dyn_peer[962] 	lookupTimeSig:mean 	-nan
scalar Network.dyn_peer[962] 	lookupStabilitySig:mean 	-nan
scalar Network.dyn_peer[962] 	lookupHopsSig:mean 	-nan
scalar Network.dyn_peer[963] 	lookupTimeSig:mean 	-nan
scalar Network.dyn_peer[963] 	lookupStabilitySig:mean 	-nan
scalar Network.dyn_peer[963] 	lookupHopsSig:mean 	-nan
scalar Network.dyn_peer[964] 	lookupTimeSig:mean 	-nan
scalar Network.dyn_peer[964] 	lookupStabilitySig:mean 	-nan
scalar Network.dyn_peer[964] 	lookupHopsSig:mean 	-nan
scalar Network.dyn_peer[965] 	lookupTimeSig:mean 	-nan
scalar Network.dyn_peer[965] 	lookupStabilitySig:mean 	-nan
scalar Network.dyn_peer[965] 	lookupHopsSig:mean 	-nan
scalar Network.dyn_peer[966] 	lookupTimeSig:mean 	-nan
scalar Network.dyn_peer[966] 	lookupStabilitySig:mean 	-nan
scalar Network.dyn_peer[966] 	lookupHopsSig:mean 	-nan
scalar Network.dyn_peer[967] 	lookupTimeSig:mean 	-nan
scalar Network.dyn_peer[967] 	lookupStabilitySig:mean 	-nan
scalar Network.dyn_peer[967] 	lookupHopsSig:mean 	-nan
scalar Network.dyn_peer[968] 	lookupTimeSig:mean 	-nan
scalar Network.dyn_peer[968] 	lookupStabilitySig:mean 	-nan
scalar Network.dyn_peer[968] 	lookupHopsSig:mean 	-nan
scalar Network.dyn_peer[969] 	lookupTimeSig:mean 	-nan
scalar Network.dyn_peer[969] 	lookupStabilitySig:mean 	-nan
scalar Network.dyn_peer[969] 	lookupHopsSig:mean 	-nan
scalar Network.dyn_peer[970] 	lookupTimeSig:mean 	-nan
scalar Network.dyn_peer[970] 	lookupStabilitySig:mean 	-nan
scalar Network.dyn_peer[970] 	lookupHopsSig:mean 	-nan
scalar Network.dyn_peer[971] 	lookupTimeSig:mean 	-nan
scalar Network.dyn_peer[971] 	lookupStabilitySig:mean 	-nan
scalar Network.dyn_peer[971] 	lookupHopsSig:mean 	-nan
scalar Network.dyn_peer[972] 	lookupTimeSig:mean 	-nan
scalar Network.dyn_peer[972] 	lookupStabilitySig:mean 	-nan
scalar Network.dyn_peer[972] 	lookupHopsSig:mean 	-nan
scalar Network.dyn_peer[973] 	lookupTimeSig:mean 	-nan
scalar Network.dyn_peer[973] 	lookupStabilitySig:mean 	-nan
scalar Network.dyn_peer[973] 	lookupHopsSig:mean 	-nan
scalar Network.dyn_peer[974] 	lookupTimeSig:mean 	-nan
scalar Network.dyn_peer[974] 	lookupStabilitySig:mean 	-nan
scalar Network.dyn_peer[974] 	lookupHopsSig:mean 	-nan
scalar Network.dyn_peer[975] 	lookupTimeSig:mean 	-nan
scalar Network.dyn_peer[975] 	lookupStabilitySig:mean 	-nan
scalar Network.dyn_peer[975] 	lookupHopsSig:mean 	-nan
scalar Network.dyn_peer[976] 	lookupTimeSig:mean 	-nan
scalar Network.dyn_peer[976] 	lookupStabilitySig:mean 	-nan
scalar Network.dyn_peer[976] 	lookupHopsSig:mean 	-nan
scalar Network.dyn_peer[977] 	lookupTimeSig:mean 	-nan
scalar Network.dyn_peer[977] 	lookupStabilitySig:mean 	-nan
scalar Network.dyn_peer[977] 	lookupHopsSig:mean 	-nan
scalar Network.dyn_peer[978] 	lookupTimeSig:mean 	-nan
scalar Network.dyn_peer[978] 	lookupStabilitySig:mean 	-nan
scalar Network.dyn_peer[978] 	lookupHopsSig:mean 	-nan
scalar Network.dyn_peer[979] 	lookupTimeSig:mean 	-nan
scalar Network.dyn_peer[979] 	lookupStabilitySig:mean 	-nan
scalar Network.dyn_peer[979] 	lookupHopsSig:mean 	-nan
scalar Network.dyn_peer[980] 	lookupTimeSig:mean 	-nan
scalar Network.dyn_peer[980] 	lookupStabilitySig:mean 	-nan
scalar Network.dyn_peer[980] 	lookupHopsSig:mean 	-nan
scalar Network.dyn_peer[981] 	lookupTimeSig:mean 	-nan
scalar Network.dyn_peer[981] 	lookupStabilitySig:mean 	-nan
scalar Network.dyn_peer[981] 	lookupHopsSig:mean 	-nan
scalar Network.dyn_peer[982] 	lookupTimeSig:mean 	-nan
scalar Network.dyn_peer[982] 	lookupStabilitySig:mean 	-nan
scalar Network.dyn_peer[982] 	lookupHopsSig:mean 	-nan
scalar Network.dyn_peer[983] 	lookupTimeSig:mean 	-nan
scalar Network.dyn_peer[983] 	lookupStabilitySig:mean 	-nan
scalar Network.dyn_peer[983] 	lookupHopsSig:mean 	-nan
scalar Network.dyn_peer[984] 	lookupTimeSig:mean 	-nan
scalar Network.dyn_peer[984] 	lookupStabilitySig:mean 	-nan
scalar Network.dyn_peer[984] 	lookupHopsSig:mean 	-nan
scalar Network.dyn_peer[985] 	lookupTimeSig:mean 	-nan
scalar Network.dyn_peer[985] 	lookupStabilitySig:mean 	-nan
scalar Network.dyn_peer[985] 	lookupHopsSig:mean 	-nan
scalar Network.dyn_peer[986] 	lookupTimeSig:mean 	-nan
scalar Network.dyn_peer[986] 	lookupStabilitySig:mean 	-nan
scalar Network.dyn_peer[986] 	lookupHopsSig:mean 	-nan
scalar Network.dyn_peer[987] 	lookupTimeSig:mean 	-nan
scalar Network.dyn_peer[987] 	lookupStabilitySig:mean 	-nan
scalar Network.dyn_peer[987] 	lookupHopsSig:mean 	-nan
scalar Network.dyn_peer[988] 	lookupTimeSig:mean 	-nan
scalar Network.dyn_peer[988] 	lookupStabilitySig:mean 	-nan
scalar Network.dyn_peer[988] 	lookupHopsSig:mean 	-nan
scalar Network.dyn_peer[989] 	lookupTimeSig:mean 	-nan
scalar Network.dyn_peer[989] 	lookupStabilitySig:mean 	-nan
scalar Network.dyn_peer[989] 	lookupHopsSig:mean 	-nan
scalar Network.dyn_peer[990] 	lookupTimeSig:mean 	-nan
scalar Network.dyn_peer[990] 	lookupStabilitySig:mean 	-nan
scalar Network.dyn_peer[990] 	lookupHopsSig:mean 	-nan
scalar Network.dyn_peer[991] 	lookupTimeSig:mean 	-nan
scalar Network.dyn_peer[991] 	lookupStabilitySig:mean 	-nan
scalar Network.dyn_peer[991] 	lookupHopsSig:mean 	-nan
scalar Network.dyn_peer[992] 	lookupTimeSig:mean 	-nan
scalar Network.dyn_peer[992] 	lookupStabilitySig:mean 	-nan
scalar Network.dyn_peer[992] 	lookupHopsSig:mean 	-nan
scalar Network.dyn_peer[993] 	lookupTimeSig:mean 	-nan
scalar Network.dyn_peer[993] 	lookupStabilitySig:mean 	-nan
scalar Network.dyn_peer[993] 	lookupHopsSig:mean 	-nan
scalar Network.dyn_peer[994] 	lookupTimeSig:mean 	-nan
scalar Network.dyn_peer[994] 	lookupStabilitySig:mean 	-nan
scalar Network.dyn_peer[994] 	lookupHopsSig:mean 	-nan
scalar Network.dyn_peer[995] 	lookupTimeSig:mean 	-nan
scalar Network.dyn_peer[995] 	lookupStabilitySig:mean 	-nan
scalar Network.dyn_peer[995] 	lookupHopsSig:mean 	-nan
scalar Network.dyn_peer[996] 	lookupTimeSig:mean 	-nan
scalar Network.dyn_peer[996] 	lookupStabilitySig:mean 	-nan
scalar Network.dyn_peer[996] 	lookupHopsSig:mean 	-nan
scalar Network.dyn_peer[997] 	lookupTimeSig:mean 	-nan
scalar Network.dyn_peer[997] 	lookupStabilitySig:mean 	-nan
scalar Network.dyn_peer[997] 	lookupHopsSig:mean 	-nan
scalar Network.dyn_peer[998] 	lookupTimeSig:mean 	-nan
scalar Network.dyn_peer[998] 	lookupStabilitySig:mean 	-nan
scalar Network.dyn_peer[998] 	lookupHopsSig:mean 	-nan
scalar Network.dyn_peer[999] 	lookupTimeSig:mean 	-nan
scalar Network.dyn_peer[999] 	lookupStabilitySig:mean 	-nan
scalar Network.dyn_peer[999] 	lookupHopsSig:mean 	-nan
scalar Network.churner 	inGoingSizeSig:mean 	199.00249376559
