version 2
run Stability2-99-20130526-00:51:36-26640
attr configname Stability2
attr datetime 20130526-00:51:36
attr experiment Stability2
attr inifile omnetpp.ini
attr iterationvars $0=40
attr iterationvars2 "$0=40, $repetition=9"
attr measurement $0=40
attr network Network
attr processid 26640
attr repetition 9
attr replication #9
attr resultdir results
attr runnumber 99
attr seedset 99

scalar Network.dyn_peer[0] 	lookupTimeSig:mean 	0.33333333333333
scalar Network.dyn_peer[0] 	lookupStabilitySig:mean 	0.5619047532479
scalar Network.dyn_peer[0] 	lookupHopsSig:mean 	2.6666666666667
scalar Network.dyn_peer[1] 	lookupTimeSig:mean 	0.31666666666667
scalar Network.dyn_peer[1] 	lookupStabilitySig:mean 	0.68510099872947
scalar Network.dyn_peer[1] 	lookupHopsSig:mean 	2.3333333333333
scalar Network.dyn_peer[2] 	lookupTimeSig:mean 	0.375
scalar Network.dyn_peer[2] 	lookupStabilitySig:mean 	0.60227272473276
scalar Network.dyn_peer[2] 	lookupHopsSig:mean 	3
scalar Network.dyn_peer[3] 	lookupTimeSig:mean 	0.3
scalar Network.dyn_peer[3] 	lookupStabilitySig:mean 	0.58888889352481
scalar Network.dyn_peer[3] 	lookupHopsSig:mean 	2.3333333333333
scalar Network.dyn_peer[4] 	lookupTimeSig:mean 	0.44285714285714
scalar Network.dyn_peer[4] 	lookupStabilitySig:mean 	0.71971127390862
scalar Network.dyn_peer[4] 	lookupHopsSig:mean 	3.5714285714286
scalar Network.dyn_peer[5] 	lookupTimeSig:mean 	0.35
scalar Network.dyn_peer[5] 	lookupStabilitySig:mean 	0.75477716326714
scalar Network.dyn_peer[5] 	lookupHopsSig:mean 	2.6666666666667
scalar Network.dyn_peer[6] 	lookupTimeSig:mean 	0.375
scalar Network.dyn_peer[6] 	lookupStabilitySig:mean 	0.696428575553
scalar Network.dyn_peer[6] 	lookupHopsSig:mean 	3
scalar Network.dyn_peer[7] 	lookupTimeSig:mean 	0.4
scalar Network.dyn_peer[7] 	lookupStabilitySig:mean 	0.82239379767667
scalar Network.dyn_peer[7] 	lookupHopsSig:mean 	3.0909090909091
scalar Network.dyn_peer[8] 	lookupTimeSig:mean 	0.46666666666667
scalar Network.dyn_peer[8] 	lookupStabilitySig:mean 	0.59629630297422
scalar Network.dyn_peer[8] 	lookupHopsSig:mean 	4
scalar Network.dyn_peer[9] 	lookupTimeSig:mean 	0.6
scalar Network.dyn_peer[9] 	lookupStabilitySig:mean 	0.17272724211216
scalar Network.dyn_peer[9] 	lookupHopsSig:mean 	5.5
scalar Network.dyn_peer[10] 	lookupTimeSig:mean 	0.7
scalar Network.dyn_peer[10] 	lookupStabilitySig:mean 	0.59567900498708
scalar Network.dyn_peer[10] 	lookupHopsSig:mean 	6.3333333333333
scalar Network.dyn_peer[11] 	lookupTimeSig:mean 	0.36666666666667
scalar Network.dyn_peer[11] 	lookupStabilitySig:mean 	0.49999998013179
scalar Network.dyn_peer[11] 	lookupHopsSig:mean 	3
scalar Network.dyn_peer[12] 	lookupTimeSig:mean 	0.3
scalar Network.dyn_peer[12] 	lookupStabilitySig:mean 	0.69636363089085
scalar Network.dyn_peer[12] 	lookupHopsSig:mean 	2.2
scalar Network.dyn_peer[13] 	lookupTimeSig:mean 	0.55
scalar Network.dyn_peer[13] 	lookupStabilitySig:mean 	0.74854268506169
scalar Network.dyn_peer[13] 	lookupHopsSig:mean 	4.75
scalar Network.dyn_peer[14] 	lookupTimeSig:mean 	0.33333333333333
scalar Network.dyn_peer[14] 	lookupStabilitySig:mean 	0.49166665474574
scalar Network.dyn_peer[14] 	lookupHopsSig:mean 	2.6666666666667
scalar Network.dyn_peer[15] 	lookupTimeSig:mean 	0.5
scalar Network.dyn_peer[15] 	lookupStabilitySig:mean 	0.79692712835968
scalar Network.dyn_peer[15] 	lookupHopsSig:mean 	4.1
scalar Network.dyn_peer[16] 	lookupTimeSig:mean 	0.325
scalar Network.dyn_peer[16] 	lookupStabilitySig:mean 	0.67777776345611
scalar Network.dyn_peer[16] 	lookupHopsSig:mean 	2.5
scalar Network.dyn_peer[17] 	lookupTimeSig:mean 	0.51666666666667
scalar Network.dyn_peer[17] 	lookupStabilitySig:mean 	0.79051762322585
scalar Network.dyn_peer[17] 	lookupHopsSig:mean 	4.3333333333333
scalar Network.dyn_peer[18] 	lookupTimeSig:mean 	0.44285714285714
scalar Network.dyn_peer[18] 	lookupStabilitySig:mean 	0.69521878766162
scalar Network.dyn_peer[18] 	lookupHopsSig:mean 	3.5714285714286
scalar Network.dyn_peer[19] 	lookupTimeSig:mean 	0.325
scalar Network.dyn_peer[19] 	lookupStabilitySig:mean 	0.64117646217346
scalar Network.dyn_peer[19] 	lookupHopsSig:mean 	2.5
scalar Network.dyn_peer[20] 	lookupTimeSig:mean 	0.43076923076923
scalar Network.dyn_peer[20] 	lookupStabilitySig:mean 	0.82922058022366
scalar Network.dyn_peer[20] 	lookupHopsSig:mean 	3.3846153846154
scalar Network.dyn_peer[21] 	lookupTimeSig:mean 	0.44
scalar Network.dyn_peer[21] 	lookupStabilitySig:mean 	0.65924242287874
scalar Network.dyn_peer[21] 	lookupHopsSig:mean 	3.6
scalar Network.dyn_peer[22] 	lookupTimeSig:mean 	0.35
scalar Network.dyn_peer[22] 	lookupStabilitySig:mean 	0.6105263158679
scalar Network.dyn_peer[22] 	lookupHopsSig:mean 	2.75
scalar Network.dyn_peer[23] 	lookupTimeSig:mean 	0.4
scalar Network.dyn_peer[23] 	lookupStabilitySig:mean 	0.79272647462785
scalar Network.dyn_peer[23] 	lookupHopsSig:mean 	3.1
scalar Network.dyn_peer[24] 	lookupTimeSig:mean 	0.43333333333333
scalar Network.dyn_peer[24] 	lookupStabilitySig:mean 	0.50370368858178
scalar Network.dyn_peer[24] 	lookupHopsSig:mean 	3.6666666666667
scalar Network.dyn_peer[25] 	lookupTimeSig:mean 	0.26666666666667
scalar Network.dyn_peer[25] 	lookupStabilitySig:mean 	0.59999999403954
scalar Network.dyn_peer[25] 	lookupHopsSig:mean 	2
scalar Network.dyn_peer[26] 	lookupTimeSig:mean 	0.54285714285714
scalar Network.dyn_peer[26] 	lookupStabilitySig:mean 	0.65663420728275
scalar Network.dyn_peer[26] 	lookupHopsSig:mean 	4.5714285714286
scalar Network.dyn_peer[27] 	lookupTimeSig:mean 	0.41666666666667
scalar Network.dyn_peer[27] 	lookupStabilitySig:mean 	0.68405483849347
scalar Network.dyn_peer[27] 	lookupHopsSig:mean 	3.3333333333333
scalar Network.dyn_peer[28] 	lookupTimeSig:mean 	0.45
scalar Network.dyn_peer[28] 	lookupStabilitySig:mean 	0.79875961765647
scalar Network.dyn_peer[28] 	lookupHopsSig:mean 	3.6
scalar Network.dyn_peer[29] 	lookupTimeSig:mean 	0.33333333333333
scalar Network.dyn_peer[29] 	lookupStabilitySig:mean 	0.69461012880007
scalar Network.dyn_peer[29] 	lookupHopsSig:mean 	2.5
scalar Network.dyn_peer[30] 	lookupTimeSig:mean 	0.25
scalar Network.dyn_peer[30] 	lookupStabilitySig:mean 	0.69444444030523
scalar Network.dyn_peer[30] 	lookupHopsSig:mean 	1.75
scalar Network.dyn_peer[31] 	lookupTimeSig:mean 	0.3
scalar Network.dyn_peer[31] 	lookupStabilitySig:mean 	0.63749999180436
scalar Network.dyn_peer[31] 	lookupHopsSig:mean 	2.25
scalar Network.dyn_peer[32] 	lookupTimeSig:mean 	0.42857142857143
scalar Network.dyn_peer[32] 	lookupStabilitySig:mean 	0.78665494200374
scalar Network.dyn_peer[32] 	lookupHopsSig:mean 	3.4285714285714
scalar Network.dyn_peer[33] 	lookupTimeSig:mean 	0.43333333333333
scalar Network.dyn_peer[33] 	lookupStabilitySig:mean 	0.76306107857575
scalar Network.dyn_peer[33] 	lookupHopsSig:mean 	3.5
scalar Network.dyn_peer[34] 	lookupTimeSig:mean 	0.48
scalar Network.dyn_peer[34] 	lookupStabilitySig:mean 	0.76705347895622
scalar Network.dyn_peer[34] 	lookupHopsSig:mean 	4
scalar Network.dyn_peer[35] 	lookupTimeSig:mean 	0.6
scalar Network.dyn_peer[35] 	lookupStabilitySig:mean 	0.36666664481163
scalar Network.dyn_peer[35] 	lookupHopsSig:mean 	5.5
scalar Network.dyn_peer[36] 	lookupTimeSig:mean 	0.625
scalar Network.dyn_peer[36] 	lookupStabilitySig:mean 	0.49971589446068
scalar Network.dyn_peer[36] 	lookupHopsSig:mean 	5.5
scalar Network.dyn_peer[37] 	lookupTimeSig:mean 	0.3
scalar Network.dyn_peer[37] 	lookupStabilitySig:mean 	0.64285713806748
scalar Network.dyn_peer[37] 	lookupHopsSig:mean 	2.25
scalar Network.dyn_peer[38] 	lookupTimeSig:mean 	0.42
scalar Network.dyn_peer[38] 	lookupStabilitySig:mean 	0.62183511257172
scalar Network.dyn_peer[38] 	lookupHopsSig:mean 	3.4
scalar Network.dyn_peer[39] 	lookupTimeSig:mean 	0.375
scalar Network.dyn_peer[39] 	lookupStabilitySig:mean 	0.68913043197244
scalar Network.dyn_peer[39] 	lookupHopsSig:mean 	3
scalar Network.dyn_peer[40] 	lookupTimeSig:mean 	-nan
scalar Network.dyn_peer[40] 	lookupStabilitySig:mean 	-nan
scalar Network.dyn_peer[40] 	lookupHopsSig:mean 	-nan
scalar Network.dyn_peer[41] 	lookupTimeSig:mean 	-nan
scalar Network.dyn_peer[41] 	lookupStabilitySig:mean 	-nan
scalar Network.dyn_peer[41] 	lookupHopsSig:mean 	-nan
scalar Network.dyn_peer[42] 	lookupTimeSig:mean 	-nan
scalar Network.dyn_peer[42] 	lookupStabilitySig:mean 	-nan
scalar Network.dyn_peer[42] 	lookupHopsSig:mean 	-nan
scalar Network.dyn_peer[43] 	lookupTimeSig:mean 	-nan
scalar Network.dyn_peer[43] 	lookupStabilitySig:mean 	-nan
scalar Network.dyn_peer[43] 	lookupHopsSig:mean 	-nan
scalar Network.dyn_peer[44] 	lookupTimeSig:mean 	-nan
scalar Network.dyn_peer[44] 	lookupStabilitySig:mean 	-nan
scalar Network.dyn_peer[44] 	lookupHopsSig:mean 	-nan
scalar Network.dyn_peer[45] 	lookupTimeSig:mean 	-nan
scalar Network.dyn_peer[45] 	lookupStabilitySig:mean 	-nan
scalar Network.dyn_peer[45] 	lookupHopsSig:mean 	-nan
scalar Network.dyn_peer[46] 	lookupTimeSig:mean 	-nan
scalar Network.dyn_peer[46] 	lookupStabilitySig:mean 	-nan
scalar Network.dyn_peer[46] 	lookupHopsSig:mean 	-nan
scalar Network.dyn_peer[47] 	lookupTimeSig:mean 	-nan
scalar Network.dyn_peer[47] 	lookupStabilitySig:mean 	-nan
scalar Network.dyn_peer[47] 	lookupHopsSig:mean 	-nan
scalar Network.dyn_peer[48] 	lookupTimeSig:mean 	-nan
scalar Network.dyn_peer[48] 	lookupStabilitySig:mean 	-nan
scalar Network.dyn_peer[48] 	lookupHopsSig:mean 	-nan
scalar Network.dyn_peer[49] 	lookupTimeSig:mean 	-nan
scalar Network.dyn_peer[49] 	lookupStabilitySig:mean 	-nan
scalar Network.dyn_peer[49] 	lookupHopsSig:mean 	-nan
scalar Network.dyn_peer[50] 	lookupTimeSig:mean 	-nan
scalar Network.dyn_peer[50] 	lookupStabilitySig:mean 	-nan
scalar Network.dyn_peer[50] 	lookupHopsSig:mean 	-nan
scalar Network.dyn_peer[51] 	lookupTimeSig:mean 	-nan
scalar Network.dyn_peer[51] 	lookupStabilitySig:mean 	-nan
scalar Network.dyn_peer[51] 	lookupHopsSig:mean 	-nan
scalar Network.dyn_peer[52] 	lookupTimeSig:mean 	-nan
scalar Network.dyn_peer[52] 	lookupStabilitySig:mean 	-nan
scalar Network.dyn_peer[52] 	lookupHopsSig:mean 	-nan
scalar Network.dyn_peer[53] 	lookupTimeSig:mean 	-nan
scalar Network.dyn_peer[53] 	lookupStabilitySig:mean 	-nan
scalar Network.dyn_peer[53] 	lookupHopsSig:mean 	-nan
scalar Network.dyn_peer[54] 	lookupTimeSig:mean 	-nan
scalar Network.dyn_peer[54] 	lookupStabilitySig:mean 	-nan
scalar Network.dyn_peer[54] 	lookupHopsSig:mean 	-nan
scalar Network.dyn_peer[55] 	lookupTimeSig:mean 	-nan
scalar Network.dyn_peer[55] 	lookupStabilitySig:mean 	-nan
scalar Network.dyn_peer[55] 	lookupHopsSig:mean 	-nan
scalar Network.dyn_peer[56] 	lookupTimeSig:mean 	-nan
scalar Network.dyn_peer[56] 	lookupStabilitySig:mean 	-nan
scalar Network.dyn_peer[56] 	lookupHopsSig:mean 	-nan
scalar Network.dyn_peer[57] 	lookupTimeSig:mean 	-nan
scalar Network.dyn_peer[57] 	lookupStabilitySig:mean 	-nan
scalar Network.dyn_peer[57] 	lookupHopsSig:mean 	-nan
scalar Network.dyn_peer[58] 	lookupTimeSig:mean 	-nan
scalar Network.dyn_peer[58] 	lookupStabilitySig:mean 	-nan
scalar Network.dyn_peer[58] 	lookupHopsSig:mean 	-nan
scalar Network.dyn_peer[59] 	lookupTimeSig:mean 	-nan
scalar Network.dyn_peer[59] 	lookupStabilitySig:mean 	-nan
scalar Network.dyn_peer[59] 	lookupHopsSig:mean 	-nan
scalar Network.dyn_peer[60] 	lookupTimeSig:mean 	-nan
scalar Network.dyn_peer[60] 	lookupStabilitySig:mean 	-nan
scalar Network.dyn_peer[60] 	lookupHopsSig:mean 	-nan
scalar Network.dyn_peer[61] 	lookupTimeSig:mean 	-nan
scalar Network.dyn_peer[61] 	lookupStabilitySig:mean 	-nan
scalar Network.dyn_peer[61] 	lookupHopsSig:mean 	-nan
scalar Network.dyn_peer[62] 	lookupTimeSig:mean 	-nan
scalar Network.dyn_peer[62] 	lookupStabilitySig:mean 	-nan
scalar Network.dyn_peer[62] 	lookupHopsSig:mean 	-nan
scalar Network.dyn_peer[63] 	lookupTimeSig:mean 	-nan
scalar Network.dyn_peer[63] 	lookupStabilitySig:mean 	-nan
scalar Network.dyn_peer[63] 	lookupHopsSig:mean 	-nan
scalar Network.dyn_peer[64] 	lookupTimeSig:mean 	-nan
scalar Network.dyn_peer[64] 	lookupStabilitySig:mean 	-nan
scalar Network.dyn_peer[64] 	lookupHopsSig:mean 	-nan
scalar Network.dyn_peer[65] 	lookupTimeSig:mean 	-nan
scalar Network.dyn_peer[65] 	lookupStabilitySig:mean 	-nan
scalar Network.dyn_peer[65] 	lookupHopsSig:mean 	-nan
scalar Network.dyn_peer[66] 	lookupTimeSig:mean 	-nan
scalar Network.dyn_peer[66] 	lookupStabilitySig:mean 	-nan
scalar Network.dyn_peer[66] 	lookupHopsSig:mean 	-nan
scalar Network.dyn_peer[67] 	lookupTimeSig:mean 	-nan
scalar Network.dyn_peer[67] 	lookupStabilitySig:mean 	-nan
scalar Network.dyn_peer[67] 	lookupHopsSig:mean 	-nan
scalar Network.dyn_peer[68] 	lookupTimeSig:mean 	-nan
scalar Network.dyn_peer[68] 	lookupStabilitySig:mean 	-nan
scalar Network.dyn_peer[68] 	lookupHopsSig:mean 	-nan
scalar Network.dyn_peer[69] 	lookupTimeSig:mean 	-nan
scalar Network.dyn_peer[69] 	lookupStabilitySig:mean 	-nan
scalar Network.dyn_peer[69] 	lookupHopsSig:mean 	-nan
scalar Network.dyn_peer[70] 	lookupTimeSig:mean 	-nan
scalar Network.dyn_peer[70] 	lookupStabilitySig:mean 	-nan
scalar Network.dyn_peer[70] 	lookupHopsSig:mean 	-nan
scalar Network.dyn_peer[71] 	lookupTimeSig:mean 	-nan
scalar Network.dyn_peer[71] 	lookupStabilitySig:mean 	-nan
scalar Network.dyn_peer[71] 	lookupHopsSig:mean 	-nan
scalar Network.dyn_peer[72] 	lookupTimeSig:mean 	-nan
scalar Network.dyn_peer[72] 	lookupStabilitySig:mean 	-nan
scalar Network.dyn_peer[72] 	lookupHopsSig:mean 	-nan
scalar Network.dyn_peer[73] 	lookupTimeSig:mean 	-nan
scalar Network.dyn_peer[73] 	lookupStabilitySig:mean 	-nan
scalar Network.dyn_peer[73] 	lookupHopsSig:mean 	-nan
scalar Network.dyn_peer[74] 	lookupTimeSig:mean 	-nan
scalar Network.dyn_peer[74] 	lookupStabilitySig:mean 	-nan
scalar Network.dyn_peer[74] 	lookupHopsSig:mean 	-nan
scalar Network.dyn_peer[75] 	lookupTimeSig:mean 	-nan
scalar Network.dyn_peer[75] 	lookupStabilitySig:mean 	-nan
scalar Network.dyn_peer[75] 	lookupHopsSig:mean 	-nan
scalar Network.dyn_peer[76] 	lookupTimeSig:mean 	-nan
scalar Network.dyn_peer[76] 	lookupStabilitySig:mean 	-nan
scalar Network.dyn_peer[76] 	lookupHopsSig:mean 	-nan
scalar Network.dyn_peer[77] 	lookupTimeSig:mean 	-nan
scalar Network.dyn_peer[77] 	lookupStabilitySig:mean 	-nan
scalar Network.dyn_peer[77] 	lookupHopsSig:mean 	-nan
scalar Network.dyn_peer[78] 	lookupTimeSig:mean 	-nan
scalar Network.dyn_peer[78] 	lookupStabilitySig:mean 	-nan
scalar Network.dyn_peer[78] 	lookupHopsSig:mean 	-nan
scalar Network.dyn_peer[79] 	lookupTimeSig:mean 	-nan
scalar Network.dyn_peer[79] 	lookupStabilitySig:mean 	-nan
scalar Network.dyn_peer[79] 	lookupHopsSig:mean 	-nan
scalar Network.dyn_peer[80] 	lookupTimeSig:mean 	-nan
scalar Network.dyn_peer[80] 	lookupStabilitySig:mean 	-nan
scalar Network.dyn_peer[80] 	lookupHopsSig:mean 	-nan
scalar Network.dyn_peer[81] 	lookupTimeSig:mean 	-nan
scalar Network.dyn_peer[81] 	lookupStabilitySig:mean 	-nan
scalar Network.dyn_peer[81] 	lookupHopsSig:mean 	-nan
scalar Network.dyn_peer[82] 	lookupTimeSig:mean 	-nan
scalar Network.dyn_peer[82] 	lookupStabilitySig:mean 	-nan
scalar Network.dyn_peer[82] 	lookupHopsSig:mean 	-nan
scalar Network.dyn_peer[83] 	lookupTimeSig:mean 	-nan
scalar Network.dyn_peer[83] 	lookupStabilitySig:mean 	-nan
scalar Network.dyn_peer[83] 	lookupHopsSig:mean 	-nan
scalar Network.dyn_peer[84] 	lookupTimeSig:mean 	-nan
scalar Network.dyn_peer[84] 	lookupStabilitySig:mean 	-nan
scalar Network.dyn_peer[84] 	lookupHopsSig:mean 	-nan
scalar Network.dyn_peer[85] 	lookupTimeSig:mean 	-nan
scalar Network.dyn_peer[85] 	lookupStabilitySig:mean 	-nan
scalar Network.dyn_peer[85] 	lookupHopsSig:mean 	-nan
scalar Network.dyn_peer[86] 	lookupTimeSig:mean 	-nan
scalar Network.dyn_peer[86] 	lookupStabilitySig:mean 	-nan
scalar Network.dyn_peer[86] 	lookupHopsSig:mean 	-nan
scalar Network.dyn_peer[87] 	lookupTimeSig:mean 	-nan
scalar Network.dyn_peer[87] 	lookupStabilitySig:mean 	-nan
scalar Network.dyn_peer[87] 	lookupHopsSig:mean 	-nan
scalar Network.dyn_peer[88] 	lookupTimeSig:mean 	-nan
scalar Network.dyn_peer[88] 	lookupStabilitySig:mean 	-nan
scalar Network.dyn_peer[88] 	lookupHopsSig:mean 	-nan
scalar Network.dyn_peer[89] 	lookupTimeSig:mean 	-nan
scalar Network.dyn_peer[89] 	lookupStabilitySig:mean 	-nan
scalar Network.dyn_peer[89] 	lookupHopsSig:mean 	-nan
scalar Network.dyn_peer[90] 	lookupTimeSig:mean 	-nan
scalar Network.dyn_peer[90] 	lookupStabilitySig:mean 	-nan
scalar Network.dyn_peer[90] 	lookupHopsSig:mean 	-nan
scalar Network.dyn_peer[91] 	lookupTimeSig:mean 	-nan
scalar Network.dyn_peer[91] 	lookupStabilitySig:mean 	-nan
scalar Network.dyn_peer[91] 	lookupHopsSig:mean 	-nan
scalar Network.dyn_peer[92] 	lookupTimeSig:mean 	-nan
scalar Network.dyn_peer[92] 	lookupStabilitySig:mean 	-nan
scalar Network.dyn_peer[92] 	lookupHopsSig:mean 	-nan
scalar Network.dyn_peer[93] 	lookupTimeSig:mean 	-nan
scalar Network.dyn_peer[93] 	lookupStabilitySig:mean 	-nan
scalar Network.dyn_peer[93] 	lookupHopsSig:mean 	-nan
scalar Network.dyn_peer[94] 	lookupTimeSig:mean 	-nan
scalar Network.dyn_peer[94] 	lookupStabilitySig:mean 	-nan
scalar Network.dyn_peer[94] 	lookupHopsSig:mean 	-nan
scalar Network.dyn_peer[95] 	lookupTimeSig:mean 	-nan
scalar Network.dyn_peer[95] 	lookupStabilitySig:mean 	-nan
scalar Network.dyn_peer[95] 	lookupHopsSig:mean 	-nan
scalar Network.dyn_peer[96] 	lookupTimeSig:mean 	-nan
scalar Network.dyn_peer[96] 	lookupStabilitySig:mean 	-nan
scalar Network.dyn_peer[96] 	lookupHopsSig:mean 	-nan
scalar Network.dyn_peer[97] 	lookupTimeSig:mean 	-nan
scalar Network.dyn_peer[97] 	lookupStabilitySig:mean 	-nan
scalar Network.dyn_peer[97] 	lookupHopsSig:mean 	-nan
scalar Network.dyn_peer[98] 	lookupTimeSig:mean 	-nan
scalar Network.dyn_peer[98] 	lookupStabilitySig:mean 	-nan
scalar Network.dyn_peer[98] 	lookupHopsSig:mean 	-nan
scalar Network.dyn_peer[99] 	lookupTimeSig:mean 	-nan
scalar Network.dyn_peer[99] 	lookupStabilitySig:mean 	-nan
scalar Network.dyn_peer[99] 	lookupHopsSig:mean 	-nan
scalar Network.dyn_peer[100] 	lookupTimeSig:mean 	-nan
scalar Network.dyn_peer[100] 	lookupStabilitySig:mean 	-nan
scalar Network.dyn_peer[100] 	lookupHopsSig:mean 	-nan
scalar Network.dyn_peer[101] 	lookupTimeSig:mean 	-nan
scalar Network.dyn_peer[101] 	lookupStabilitySig:mean 	-nan
scalar Network.dyn_peer[101] 	lookupHopsSig:mean 	-nan
scalar Network.dyn_peer[102] 	lookupTimeSig:mean 	-nan
scalar Network.dyn_peer[102] 	lookupStabilitySig:mean 	-nan
scalar Network.dyn_peer[102] 	lookupHopsSig:mean 	-nan
scalar Network.dyn_peer[103] 	lookupTimeSig:mean 	-nan
scalar Network.dyn_peer[103] 	lookupStabilitySig:mean 	-nan
scalar Network.dyn_peer[103] 	lookupHopsSig:mean 	-nan
scalar Network.dyn_peer[104] 	lookupTimeSig:mean 	-nan
scalar Network.dyn_peer[104] 	lookupStabilitySig:mean 	-nan
scalar Network.dyn_peer[104] 	lookupHopsSig:mean 	-nan
scalar Network.dyn_peer[105] 	lookupTimeSig:mean 	-nan
scalar Network.dyn_peer[105] 	lookupStabilitySig:mean 	-nan
scalar Network.dyn_peer[105] 	lookupHopsSig:mean 	-nan
scalar Network.dyn_peer[106] 	lookupTimeSig:mean 	-nan
scalar Network.dyn_peer[106] 	lookupStabilitySig:mean 	-nan
scalar Network.dyn_peer[106] 	lookupHopsSig:mean 	-nan
scalar Network.dyn_peer[107] 	lookupTimeSig:mean 	-nan
scalar Network.dyn_peer[107] 	lookupStabilitySig:mean 	-nan
scalar Network.dyn_peer[107] 	lookupHopsSig:mean 	-nan
scalar Network.dyn_peer[108] 	lookupTimeSig:mean 	-nan
scalar Network.dyn_peer[108] 	lookupStabilitySig:mean 	-nan
scalar Network.dyn_peer[108] 	lookupHopsSig:mean 	-nan
scalar Network.dyn_peer[109] 	lookupTimeSig:mean 	-nan
scalar Network.dyn_peer[109] 	lookupStabilitySig:mean 	-nan
scalar Network.dyn_peer[109] 	lookupHopsSig:mean 	-nan
scalar Network.dyn_peer[110] 	lookupTimeSig:mean 	-nan
scalar Network.dyn_peer[110] 	lookupStabilitySig:mean 	-nan
scalar Network.dyn_peer[110] 	lookupHopsSig:mean 	-nan
scalar Network.dyn_peer[111] 	lookupTimeSig:mean 	-nan
scalar Network.dyn_peer[111] 	lookupStabilitySig:mean 	-nan
scalar Network.dyn_peer[111] 	lookupHopsSig:mean 	-nan
scalar Network.dyn_peer[112] 	lookupTimeSig:mean 	-nan
scalar Network.dyn_peer[112] 	lookupStabilitySig:mean 	-nan
scalar Network.dyn_peer[112] 	lookupHopsSig:mean 	-nan
scalar Network.dyn_peer[113] 	lookupTimeSig:mean 	-nan
scalar Network.dyn_peer[113] 	lookupStabilitySig:mean 	-nan
scalar Network.dyn_peer[113] 	lookupHopsSig:mean 	-nan
scalar Network.dyn_peer[114] 	lookupTimeSig:mean 	-nan
scalar Network.dyn_peer[114] 	lookupStabilitySig:mean 	-nan
scalar Network.dyn_peer[114] 	lookupHopsSig:mean 	-nan
scalar Network.dyn_peer[115] 	lookupTimeSig:mean 	-nan
scalar Network.dyn_peer[115] 	lookupStabilitySig:mean 	-nan
scalar Network.dyn_peer[115] 	lookupHopsSig:mean 	-nan
scalar Network.dyn_peer[116] 	lookupTimeSig:mean 	-nan
scalar Network.dyn_peer[116] 	lookupStabilitySig:mean 	-nan
scalar Network.dyn_peer[116] 	lookupHopsSig:mean 	-nan
scalar Network.dyn_peer[117] 	lookupTimeSig:mean 	-nan
scalar Network.dyn_peer[117] 	lookupStabilitySig:mean 	-nan
scalar Network.dyn_peer[117] 	lookupHopsSig:mean 	-nan
scalar Network.dyn_peer[118] 	lookupTimeSig:mean 	-nan
scalar Network.dyn_peer[118] 	lookupStabilitySig:mean 	-nan
scalar Network.dyn_peer[118] 	lookupHopsSig:mean 	-nan
scalar Network.dyn_peer[119] 	lookupTimeSig:mean 	-nan
scalar Network.dyn_peer[119] 	lookupStabilitySig:mean 	-nan
scalar Network.dyn_peer[119] 	lookupHopsSig:mean 	-nan
scalar Network.dyn_peer[120] 	lookupTimeSig:mean 	-nan
scalar Network.dyn_peer[120] 	lookupStabilitySig:mean 	-nan
scalar Network.dyn_peer[120] 	lookupHopsSig:mean 	-nan
scalar Network.dyn_peer[121] 	lookupTimeSig:mean 	-nan
scalar Network.dyn_peer[121] 	lookupStabilitySig:mean 	-nan
scalar Network.dyn_peer[121] 	lookupHopsSig:mean 	-nan
scalar Network.dyn_peer[122] 	lookupTimeSig:mean 	-nan
scalar Network.dyn_peer[122] 	lookupStabilitySig:mean 	-nan
scalar Network.dyn_peer[122] 	lookupHopsSig:mean 	-nan
scalar Network.dyn_peer[123] 	lookupTimeSig:mean 	-nan
scalar Network.dyn_peer[123] 	lookupStabilitySig:mean 	-nan
scalar Network.dyn_peer[123] 	lookupHopsSig:mean 	-nan
scalar Network.dyn_peer[124] 	lookupTimeSig:mean 	-nan
scalar Network.dyn_peer[124] 	lookupStabilitySig:mean 	-nan
scalar Network.dyn_peer[124] 	lookupHopsSig:mean 	-nan
scalar Network.dyn_peer[125] 	lookupTimeSig:mean 	-nan
scalar Network.dyn_peer[125] 	lookupStabilitySig:mean 	-nan
scalar Network.dyn_peer[125] 	lookupHopsSig:mean 	-nan
scalar Network.dyn_peer[126] 	lookupTimeSig:mean 	-nan
scalar Network.dyn_peer[126] 	lookupStabilitySig:mean 	-nan
scalar Network.dyn_peer[126] 	lookupHopsSig:mean 	-nan
scalar Network.dyn_peer[127] 	lookupTimeSig:mean 	-nan
scalar Network.dyn_peer[127] 	lookupStabilitySig:mean 	-nan
scalar Network.dyn_peer[127] 	lookupHopsSig:mean 	-nan
scalar Network.dyn_peer[128] 	lookupTimeSig:mean 	-nan
scalar Network.dyn_peer[128] 	lookupStabilitySig:mean 	-nan
scalar Network.dyn_peer[128] 	lookupHopsSig:mean 	-nan
scalar Network.dyn_peer[129] 	lookupTimeSig:mean 	-nan
scalar Network.dyn_peer[129] 	lookupStabilitySig:mean 	-nan
scalar Network.dyn_peer[129] 	lookupHopsSig:mean 	-nan
scalar Network.dyn_peer[130] 	lookupTimeSig:mean 	-nan
scalar Network.dyn_peer[130] 	lookupStabilitySig:mean 	-nan
scalar Network.dyn_peer[130] 	lookupHopsSig:mean 	-nan
scalar Network.dyn_peer[131] 	lookupTimeSig:mean 	-nan
scalar Network.dyn_peer[131] 	lookupStabilitySig:mean 	-nan
scalar Network.dyn_peer[131] 	lookupHopsSig:mean 	-nan
scalar Network.dyn_peer[132] 	lookupTimeSig:mean 	-nan
scalar Network.dyn_peer[132] 	lookupStabilitySig:mean 	-nan
scalar Network.dyn_peer[132] 	lookupHopsSig:mean 	-nan
scalar Network.dyn_peer[133] 	lookupTimeSig:mean 	-nan
scalar Network.dyn_peer[133] 	lookupStabilitySig:mean 	-nan
scalar Network.dyn_peer[133] 	lookupHopsSig:mean 	-nan
scalar Network.dyn_peer[134] 	lookupTimeSig:mean 	-nan
scalar Network.dyn_peer[134] 	lookupStabilitySig:mean 	-nan
scalar Network.dyn_peer[134] 	lookupHopsSig:mean 	-nan
scalar Network.dyn_peer[135] 	lookupTimeSig:mean 	-nan
scalar Network.dyn_peer[135] 	lookupStabilitySig:mean 	-nan
scalar Network.dyn_peer[135] 	lookupHopsSig:mean 	-nan
scalar Network.dyn_peer[136] 	lookupTimeSig:mean 	-nan
scalar Network.dyn_peer[136] 	lookupStabilitySig:mean 	-nan
scalar Network.dyn_peer[136] 	lookupHopsSig:mean 	-nan
scalar Network.dyn_peer[137] 	lookupTimeSig:mean 	-nan
scalar Network.dyn_peer[137] 	lookupStabilitySig:mean 	-nan
scalar Network.dyn_peer[137] 	lookupHopsSig:mean 	-nan
scalar Network.dyn_peer[138] 	lookupTimeSig:mean 	-nan
scalar Network.dyn_peer[138] 	lookupStabilitySig:mean 	-nan
scalar Network.dyn_peer[138] 	lookupHopsSig:mean 	-nan
scalar Network.dyn_peer[139] 	lookupTimeSig:mean 	-nan
scalar Network.dyn_peer[139] 	lookupStabilitySig:mean 	-nan
scalar Network.dyn_peer[139] 	lookupHopsSig:mean 	-nan
scalar Network.dyn_peer[140] 	lookupTimeSig:mean 	-nan
scalar Network.dyn_peer[140] 	lookupStabilitySig:mean 	-nan
scalar Network.dyn_peer[140] 	lookupHopsSig:mean 	-nan
scalar Network.dyn_peer[141] 	lookupTimeSig:mean 	-nan
scalar Network.dyn_peer[141] 	lookupStabilitySig:mean 	-nan
scalar Network.dyn_peer[141] 	lookupHopsSig:mean 	-nan
scalar Network.dyn_peer[142] 	lookupTimeSig:mean 	-nan
scalar Network.dyn_peer[142] 	lookupStabilitySig:mean 	-nan
scalar Network.dyn_peer[142] 	lookupHopsSig:mean 	-nan
scalar Network.dyn_peer[143] 	lookupTimeSig:mean 	-nan
scalar Network.dyn_peer[143] 	lookupStabilitySig:mean 	-nan
scalar Network.dyn_peer[143] 	lookupHopsSig:mean 	-nan
scalar Network.dyn_peer[144] 	lookupTimeSig:mean 	-nan
scalar Network.dyn_peer[144] 	lookupStabilitySig:mean 	-nan
scalar Network.dyn_peer[144] 	lookupHopsSig:mean 	-nan
scalar Network.dyn_peer[145] 	lookupTimeSig:mean 	-nan
scalar Network.dyn_peer[145] 	lookupStabilitySig:mean 	-nan
scalar Network.dyn_peer[145] 	lookupHopsSig:mean 	-nan
scalar Network.dyn_peer[146] 	lookupTimeSig:mean 	-nan
scalar Network.dyn_peer[146] 	lookupStabilitySig:mean 	-nan
scalar Network.dyn_peer[146] 	lookupHopsSig:mean 	-nan
scalar Network.dyn_peer[147] 	lookupTimeSig:mean 	-nan
scalar Network.dyn_peer[147] 	lookupStabilitySig:mean 	-nan
scalar Network.dyn_peer[147] 	lookupHopsSig:mean 	-nan
scalar Network.dyn_peer[148] 	lookupTimeSig:mean 	-nan
scalar Network.dyn_peer[148] 	lookupStabilitySig:mean 	-nan
scalar Network.dyn_peer[148] 	lookupHopsSig:mean 	-nan
scalar Network.dyn_peer[149] 	lookupTimeSig:mean 	-nan
scalar Network.dyn_peer[149] 	lookupStabilitySig:mean 	-nan
scalar Network.dyn_peer[149] 	lookupHopsSig:mean 	-nan
scalar Network.dyn_peer[150] 	lookupTimeSig:mean 	-nan
scalar Network.dyn_peer[150] 	lookupStabilitySig:mean 	-nan
scalar Network.dyn_peer[150] 	lookupHopsSig:mean 	-nan
scalar Network.dyn_peer[151] 	lookupTimeSig:mean 	-nan
scalar Network.dyn_peer[151] 	lookupStabilitySig:mean 	-nan
scalar Network.dyn_peer[151] 	lookupHopsSig:mean 	-nan
scalar Network.dyn_peer[152] 	lookupTimeSig:mean 	-nan
scalar Network.dyn_peer[152] 	lookupStabilitySig:mean 	-nan
scalar Network.dyn_peer[152] 	lookupHopsSig:mean 	-nan
scalar Network.dyn_peer[153] 	lookupTimeSig:mean 	-nan
scalar Network.dyn_peer[153] 	lookupStabilitySig:mean 	-nan
scalar Network.dyn_peer[153] 	lookupHopsSig:mean 	-nan
scalar Network.dyn_peer[154] 	lookupTimeSig:mean 	-nan
scalar Network.dyn_peer[154] 	lookupStabilitySig:mean 	-nan
scalar Network.dyn_peer[154] 	lookupHopsSig:mean 	-nan
scalar Network.dyn_peer[155] 	lookupTimeSig:mean 	-nan
scalar Network.dyn_peer[155] 	lookupStabilitySig:mean 	-nan
scalar Network.dyn_peer[155] 	lookupHopsSig:mean 	-nan
scalar Network.dyn_peer[156] 	lookupTimeSig:mean 	-nan
scalar Network.dyn_peer[156] 	lookupStabilitySig:mean 	-nan
scalar Network.dyn_peer[156] 	lookupHopsSig:mean 	-nan
scalar Network.dyn_peer[157] 	lookupTimeSig:mean 	-nan
scalar Network.dyn_peer[157] 	lookupStabilitySig:mean 	-nan
scalar Network.dyn_peer[157] 	lookupHopsSig:mean 	-nan
scalar Network.dyn_peer[158] 	lookupTimeSig:mean 	-nan
scalar Network.dyn_peer[158] 	lookupStabilitySig:mean 	-nan
scalar Network.dyn_peer[158] 	lookupHopsSig:mean 	-nan
scalar Network.dyn_peer[159] 	lookupTimeSig:mean 	-nan
scalar Network.dyn_peer[159] 	lookupStabilitySig:mean 	-nan
scalar Network.dyn_peer[159] 	lookupHopsSig:mean 	-nan
scalar Network.dyn_peer[160] 	lookupTimeSig:mean 	-nan
scalar Network.dyn_peer[160] 	lookupStabilitySig:mean 	-nan
scalar Network.dyn_peer[160] 	lookupHopsSig:mean 	-nan
scalar Network.dyn_peer[161] 	lookupTimeSig:mean 	-nan
scalar Network.dyn_peer[161] 	lookupStabilitySig:mean 	-nan
scalar Network.dyn_peer[161] 	lookupHopsSig:mean 	-nan
scalar Network.dyn_peer[162] 	lookupTimeSig:mean 	-nan
scalar Network.dyn_peer[162] 	lookupStabilitySig:mean 	-nan
scalar Network.dyn_peer[162] 	lookupHopsSig:mean 	-nan
scalar Network.dyn_peer[163] 	lookupTimeSig:mean 	-nan
scalar Network.dyn_peer[163] 	lookupStabilitySig:mean 	-nan
scalar Network.dyn_peer[163] 	lookupHopsSig:mean 	-nan
scalar Network.dyn_peer[164] 	lookupTimeSig:mean 	-nan
scalar Network.dyn_peer[164] 	lookupStabilitySig:mean 	-nan
scalar Network.dyn_peer[164] 	lookupHopsSig:mean 	-nan
scalar Network.dyn_peer[165] 	lookupTimeSig:mean 	-nan
scalar Network.dyn_peer[165] 	lookupStabilitySig:mean 	-nan
scalar Network.dyn_peer[165] 	lookupHopsSig:mean 	-nan
scalar Network.dyn_peer[166] 	lookupTimeSig:mean 	-nan
scalar Network.dyn_peer[166] 	lookupStabilitySig:mean 	-nan
scalar Network.dyn_peer[166] 	lookupHopsSig:mean 	-nan
scalar Network.dyn_peer[167] 	lookupTimeSig:mean 	-nan
scalar Network.dyn_peer[167] 	lookupStabilitySig:mean 	-nan
scalar Network.dyn_peer[167] 	lookupHopsSig:mean 	-nan
scalar Network.dyn_peer[168] 	lookupTimeSig:mean 	-nan
scalar Network.dyn_peer[168] 	lookupStabilitySig:mean 	-nan
scalar Network.dyn_peer[168] 	lookupHopsSig:mean 	-nan
scalar Network.dyn_peer[169] 	lookupTimeSig:mean 	-nan
scalar Network.dyn_peer[169] 	lookupStabilitySig:mean 	-nan
scalar Network.dyn_peer[169] 	lookupHopsSig:mean 	-nan
scalar Network.dyn_peer[170] 	lookupTimeSig:mean 	-nan
scalar Network.dyn_peer[170] 	lookupStabilitySig:mean 	-nan
scalar Network.dyn_peer[170] 	lookupHopsSig:mean 	-nan
scalar Network.dyn_peer[171] 	lookupTimeSig:mean 	-nan
scalar Network.dyn_peer[171] 	lookupStabilitySig:mean 	-nan
scalar Network.dyn_peer[171] 	lookupHopsSig:mean 	-nan
scalar Network.dyn_peer[172] 	lookupTimeSig:mean 	-nan
scalar Network.dyn_peer[172] 	lookupStabilitySig:mean 	-nan
scalar Network.dyn_peer[172] 	lookupHopsSig:mean 	-nan
scalar Network.dyn_peer[173] 	lookupTimeSig:mean 	-nan
scalar Network.dyn_peer[173] 	lookupStabilitySig:mean 	-nan
scalar Network.dyn_peer[173] 	lookupHopsSig:mean 	-nan
scalar Network.dyn_peer[174] 	lookupTimeSig:mean 	-nan
scalar Network.dyn_peer[174] 	lookupStabilitySig:mean 	-nan
scalar Network.dyn_peer[174] 	lookupHopsSig:mean 	-nan
scalar Network.dyn_peer[175] 	lookupTimeSig:mean 	-nan
scalar Network.dyn_peer[175] 	lookupStabilitySig:mean 	-nan
scalar Network.dyn_peer[175] 	lookupHopsSig:mean 	-nan
scalar Network.dyn_peer[176] 	lookupTimeSig:mean 	-nan
scalar Network.dyn_peer[176] 	lookupStabilitySig:mean 	-nan
scalar Network.dyn_peer[176] 	lookupHopsSig:mean 	-nan
scalar Network.dyn_peer[177] 	lookupTimeSig:mean 	-nan
scalar Network.dyn_peer[177] 	lookupStabilitySig:mean 	-nan
scalar Network.dyn_peer[177] 	lookupHopsSig:mean 	-nan
scalar Network.dyn_peer[178] 	lookupTimeSig:mean 	-nan
scalar Network.dyn_peer[178] 	lookupStabilitySig:mean 	-nan
scalar Network.dyn_peer[178] 	lookupHopsSig:mean 	-nan
scalar Network.dyn_peer[179] 	lookupTimeSig:mean 	-nan
scalar Network.dyn_peer[179] 	lookupStabilitySig:mean 	-nan
scalar Network.dyn_peer[179] 	lookupHopsSig:mean 	-nan
scalar Network.dyn_peer[180] 	lookupTimeSig:mean 	-nan
scalar Network.dyn_peer[180] 	lookupStabilitySig:mean 	-nan
scalar Network.dyn_peer[180] 	lookupHopsSig:mean 	-nan
scalar Network.dyn_peer[181] 	lookupTimeSig:mean 	-nan
scalar Network.dyn_peer[181] 	lookupStabilitySig:mean 	-nan
scalar Network.dyn_peer[181] 	lookupHopsSig:mean 	-nan
scalar Network.dyn_peer[182] 	lookupTimeSig:mean 	-nan
scalar Network.dyn_peer[182] 	lookupStabilitySig:mean 	-nan
scalar Network.dyn_peer[182] 	lookupHopsSig:mean 	-nan
scalar Network.dyn_peer[183] 	lookupTimeSig:mean 	-nan
scalar Network.dyn_peer[183] 	lookupStabilitySig:mean 	-nan
scalar Network.dyn_peer[183] 	lookupHopsSig:mean 	-nan
scalar Network.dyn_peer[184] 	lookupTimeSig:mean 	-nan
scalar Network.dyn_peer[184] 	lookupStabilitySig:mean 	-nan
scalar Network.dyn_peer[184] 	lookupHopsSig:mean 	-nan
scalar Network.dyn_peer[185] 	lookupTimeSig:mean 	-nan
scalar Network.dyn_peer[185] 	lookupStabilitySig:mean 	-nan
scalar Network.dyn_peer[185] 	lookupHopsSig:mean 	-nan
scalar Network.dyn_peer[186] 	lookupTimeSig:mean 	-nan
scalar Network.dyn_peer[186] 	lookupStabilitySig:mean 	-nan
scalar Network.dyn_peer[186] 	lookupHopsSig:mean 	-nan
scalar Network.dyn_peer[187] 	lookupTimeSig:mean 	-nan
scalar Network.dyn_peer[187] 	lookupStabilitySig:mean 	-nan
scalar Network.dyn_peer[187] 	lookupHopsSig:mean 	-nan
scalar Network.dyn_peer[188] 	lookupTimeSig:mean 	-nan
scalar Network.dyn_peer[188] 	lookupStabilitySig:mean 	-nan
scalar Network.dyn_peer[188] 	lookupHopsSig:mean 	-nan
scalar Network.dyn_peer[189] 	lookupTimeSig:mean 	-nan
scalar Network.dyn_peer[189] 	lookupStabilitySig:mean 	-nan
scalar Network.dyn_peer[189] 	lookupHopsSig:mean 	-nan
scalar Network.dyn_peer[190] 	lookupTimeSig:mean 	-nan
scalar Network.dyn_peer[190] 	lookupStabilitySig:mean 	-nan
scalar Network.dyn_peer[190] 	lookupHopsSig:mean 	-nan
scalar Network.dyn_peer[191] 	lookupTimeSig:mean 	-nan
scalar Network.dyn_peer[191] 	lookupStabilitySig:mean 	-nan
scalar Network.dyn_peer[191] 	lookupHopsSig:mean 	-nan
scalar Network.dyn_peer[192] 	lookupTimeSig:mean 	-nan
scalar Network.dyn_peer[192] 	lookupStabilitySig:mean 	-nan
scalar Network.dyn_peer[192] 	lookupHopsSig:mean 	-nan
scalar Network.dyn_peer[193] 	lookupTimeSig:mean 	-nan
scalar Network.dyn_peer[193] 	lookupStabilitySig:mean 	-nan
scalar Network.dyn_peer[193] 	lookupHopsSig:mean 	-nan
scalar Network.dyn_peer[194] 	lookupTimeSig:mean 	-nan
scalar Network.dyn_peer[194] 	lookupStabilitySig:mean 	-nan
scalar Network.dyn_peer[194] 	lookupHopsSig:mean 	-nan
scalar Network.dyn_peer[195] 	lookupTimeSig:mean 	-nan
scalar Network.dyn_peer[195] 	lookupStabilitySig:mean 	-nan
scalar Network.dyn_peer[195] 	lookupHopsSig:mean 	-nan
scalar Network.dyn_peer[196] 	lookupTimeSig:mean 	-nan
scalar Network.dyn_peer[196] 	lookupStabilitySig:mean 	-nan
scalar Network.dyn_peer[196] 	lookupHopsSig:mean 	-nan
scalar Network.dyn_peer[197] 	lookupTimeSig:mean 	-nan
scalar Network.dyn_peer[197] 	lookupStabilitySig:mean 	-nan
scalar Network.dyn_peer[197] 	lookupHopsSig:mean 	-nan
scalar Network.dyn_peer[198] 	lookupTimeSig:mean 	-nan
scalar Network.dyn_peer[198] 	lookupStabilitySig:mean 	-nan
scalar Network.dyn_peer[198] 	lookupHopsSig:mean 	-nan
scalar Network.dyn_peer[199] 	lookupTimeSig:mean 	-nan
scalar Network.dyn_peer[199] 	lookupStabilitySig:mean 	-nan
scalar Network.dyn_peer[199] 	lookupHopsSig:mean 	-nan
scalar Network.dyn_peer[200] 	lookupTimeSig:mean 	-nan
scalar Network.dyn_peer[200] 	lookupStabilitySig:mean 	-nan
scalar Network.dyn_peer[200] 	lookupHopsSig:mean 	-nan
scalar Network.dyn_peer[201] 	lookupTimeSig:mean 	-nan
scalar Network.dyn_peer[201] 	lookupStabilitySig:mean 	-nan
scalar Network.dyn_peer[201] 	lookupHopsSig:mean 	-nan
scalar Network.dyn_peer[202] 	lookupTimeSig:mean 	-nan
scalar Network.dyn_peer[202] 	lookupStabilitySig:mean 	-nan
scalar Network.dyn_peer[202] 	lookupHopsSig:mean 	-nan
scalar Network.dyn_peer[203] 	lookupTimeSig:mean 	-nan
scalar Network.dyn_peer[203] 	lookupStabilitySig:mean 	-nan
scalar Network.dyn_peer[203] 	lookupHopsSig:mean 	-nan
scalar Network.dyn_peer[204] 	lookupTimeSig:mean 	-nan
scalar Network.dyn_peer[204] 	lookupStabilitySig:mean 	-nan
scalar Network.dyn_peer[204] 	lookupHopsSig:mean 	-nan
scalar Network.dyn_peer[205] 	lookupTimeSig:mean 	-nan
scalar Network.dyn_peer[205] 	lookupStabilitySig:mean 	-nan
scalar Network.dyn_peer[205] 	lookupHopsSig:mean 	-nan
scalar Network.dyn_peer[206] 	lookupTimeSig:mean 	-nan
scalar Network.dyn_peer[206] 	lookupStabilitySig:mean 	-nan
scalar Network.dyn_peer[206] 	lookupHopsSig:mean 	-nan
scalar Network.dyn_peer[207] 	lookupTimeSig:mean 	-nan
scalar Network.dyn_peer[207] 	lookupStabilitySig:mean 	-nan
scalar Network.dyn_peer[207] 	lookupHopsSig:mean 	-nan
scalar Network.dyn_peer[208] 	lookupTimeSig:mean 	-nan
scalar Network.dyn_peer[208] 	lookupStabilitySig:mean 	-nan
scalar Network.dyn_peer[208] 	lookupHopsSig:mean 	-nan
scalar Network.dyn_peer[209] 	lookupTimeSig:mean 	-nan
scalar Network.dyn_peer[209] 	lookupStabilitySig:mean 	-nan
scalar Network.dyn_peer[209] 	lookupHopsSig:mean 	-nan
scalar Network.dyn_peer[210] 	lookupTimeSig:mean 	-nan
scalar Network.dyn_peer[210] 	lookupStabilitySig:mean 	-nan
scalar Network.dyn_peer[210] 	lookupHopsSig:mean 	-nan
scalar Network.dyn_peer[211] 	lookupTimeSig:mean 	-nan
scalar Network.dyn_peer[211] 	lookupStabilitySig:mean 	-nan
scalar Network.dyn_peer[211] 	lookupHopsSig:mean 	-nan
scalar Network.dyn_peer[212] 	lookupTimeSig:mean 	-nan
scalar Network.dyn_peer[212] 	lookupStabilitySig:mean 	-nan
scalar Network.dyn_peer[212] 	lookupHopsSig:mean 	-nan
scalar Network.dyn_peer[213] 	lookupTimeSig:mean 	-nan
scalar Network.dyn_peer[213] 	lookupStabilitySig:mean 	-nan
scalar Network.dyn_peer[213] 	lookupHopsSig:mean 	-nan
scalar Network.dyn_peer[214] 	lookupTimeSig:mean 	-nan
scalar Network.dyn_peer[214] 	lookupStabilitySig:mean 	-nan
scalar Network.dyn_peer[214] 	lookupHopsSig:mean 	-nan
scalar Network.dyn_peer[215] 	lookupTimeSig:mean 	-nan
scalar Network.dyn_peer[215] 	lookupStabilitySig:mean 	-nan
scalar Network.dyn_peer[215] 	lookupHopsSig:mean 	-nan
scalar Network.dyn_peer[216] 	lookupTimeSig:mean 	-nan
scalar Network.dyn_peer[216] 	lookupStabilitySig:mean 	-nan
scalar Network.dyn_peer[216] 	lookupHopsSig:mean 	-nan
scalar Network.dyn_peer[217] 	lookupTimeSig:mean 	-nan
scalar Network.dyn_peer[217] 	lookupStabilitySig:mean 	-nan
scalar Network.dyn_peer[217] 	lookupHopsSig:mean 	-nan
scalar Network.dyn_peer[218] 	lookupTimeSig:mean 	-nan
scalar Network.dyn_peer[218] 	lookupStabilitySig:mean 	-nan
scalar Network.dyn_peer[218] 	lookupHopsSig:mean 	-nan
scalar Network.dyn_peer[219] 	lookupTimeSig:mean 	-nan
scalar Network.dyn_peer[219] 	lookupStabilitySig:mean 	-nan
scalar Network.dyn_peer[219] 	lookupHopsSig:mean 	-nan
scalar Network.dyn_peer[220] 	lookupTimeSig:mean 	-nan
scalar Network.dyn_peer[220] 	lookupStabilitySig:mean 	-nan
scalar Network.dyn_peer[220] 	lookupHopsSig:mean 	-nan
scalar Network.dyn_peer[221] 	lookupTimeSig:mean 	-nan
scalar Network.dyn_peer[221] 	lookupStabilitySig:mean 	-nan
scalar Network.dyn_peer[221] 	lookupHopsSig:mean 	-nan
scalar Network.dyn_peer[222] 	lookupTimeSig:mean 	-nan
scalar Network.dyn_peer[222] 	lookupStabilitySig:mean 	-nan
scalar Network.dyn_peer[222] 	lookupHopsSig:mean 	-nan
scalar Network.dyn_peer[223] 	lookupTimeSig:mean 	-nan
scalar Network.dyn_peer[223] 	lookupStabilitySig:mean 	-nan
scalar Network.dyn_peer[223] 	lookupHopsSig:mean 	-nan
scalar Network.dyn_peer[224] 	lookupTimeSig:mean 	-nan
scalar Network.dyn_peer[224] 	lookupStabilitySig:mean 	-nan
scalar Network.dyn_peer[224] 	lookupHopsSig:mean 	-nan
scalar Network.dyn_peer[225] 	lookupTimeSig:mean 	-nan
scalar Network.dyn_peer[225] 	lookupStabilitySig:mean 	-nan
scalar Network.dyn_peer[225] 	lookupHopsSig:mean 	-nan
scalar Network.dyn_peer[226] 	lookupTimeSig:mean 	-nan
scalar Network.dyn_peer[226] 	lookupStabilitySig:mean 	-nan
scalar Network.dyn_peer[226] 	lookupHopsSig:mean 	-nan
scalar Network.dyn_peer[227] 	lookupTimeSig:mean 	-nan
scalar Network.dyn_peer[227] 	lookupStabilitySig:mean 	-nan
scalar Network.dyn_peer[227] 	lookupHopsSig:mean 	-nan
scalar Network.dyn_peer[228] 	lookupTimeSig:mean 	-nan
scalar Network.dyn_peer[228] 	lookupStabilitySig:mean 	-nan
scalar Network.dyn_peer[228] 	lookupHopsSig:mean 	-nan
scalar Network.dyn_peer[229] 	lookupTimeSig:mean 	-nan
scalar Network.dyn_peer[229] 	lookupStabilitySig:mean 	-nan
scalar Network.dyn_peer[229] 	lookupHopsSig:mean 	-nan
scalar Network.dyn_peer[230] 	lookupTimeSig:mean 	-nan
scalar Network.dyn_peer[230] 	lookupStabilitySig:mean 	-nan
scalar Network.dyn_peer[230] 	lookupHopsSig:mean 	-nan
scalar Network.dyn_peer[231] 	lookupTimeSig:mean 	-nan
scalar Network.dyn_peer[231] 	lookupStabilitySig:mean 	-nan
scalar Network.dyn_peer[231] 	lookupHopsSig:mean 	-nan
scalar Network.dyn_peer[232] 	lookupTimeSig:mean 	-nan
scalar Network.dyn_peer[232] 	lookupStabilitySig:mean 	-nan
scalar Network.dyn_peer[232] 	lookupHopsSig:mean 	-nan
scalar Network.dyn_peer[233] 	lookupTimeSig:mean 	-nan
scalar Network.dyn_peer[233] 	lookupStabilitySig:mean 	-nan
scalar Network.dyn_peer[233] 	lookupHopsSig:mean 	-nan
scalar Network.dyn_peer[234] 	lookupTimeSig:mean 	-nan
scalar Network.dyn_peer[234] 	lookupStabilitySig:mean 	-nan
scalar Network.dyn_peer[234] 	lookupHopsSig:mean 	-nan
scalar Network.dyn_peer[235] 	lookupTimeSig:mean 	-nan
scalar Network.dyn_peer[235] 	lookupStabilitySig:mean 	-nan
scalar Network.dyn_peer[235] 	lookupHopsSig:mean 	-nan
scalar Network.dyn_peer[236] 	lookupTimeSig:mean 	-nan
scalar Network.dyn_peer[236] 	lookupStabilitySig:mean 	-nan
scalar Network.dyn_peer[236] 	lookupHopsSig:mean 	-nan
scalar Network.dyn_peer[237] 	lookupTimeSig:mean 	-nan
scalar Network.dyn_peer[237] 	lookupStabilitySig:mean 	-nan
scalar Network.dyn_peer[237] 	lookupHopsSig:mean 	-nan
scalar Network.dyn_peer[238] 	lookupTimeSig:mean 	-nan
scalar Network.dyn_peer[238] 	lookupStabilitySig:mean 	-nan
scalar Network.dyn_peer[238] 	lookupHopsSig:mean 	-nan
scalar Network.dyn_peer[239] 	lookupTimeSig:mean 	-nan
scalar Network.dyn_peer[239] 	lookupStabilitySig:mean 	-nan
scalar Network.dyn_peer[239] 	lookupHopsSig:mean 	-nan
scalar Network.dyn_peer[240] 	lookupTimeSig:mean 	-nan
scalar Network.dyn_peer[240] 	lookupStabilitySig:mean 	-nan
scalar Network.dyn_peer[240] 	lookupHopsSig:mean 	-nan
scalar Network.dyn_peer[241] 	lookupTimeSig:mean 	-nan
scalar Network.dyn_peer[241] 	lookupStabilitySig:mean 	-nan
scalar Network.dyn_peer[241] 	lookupHopsSig:mean 	-nan
scalar Network.dyn_peer[242] 	lookupTimeSig:mean 	-nan
scalar Network.dyn_peer[242] 	lookupStabilitySig:mean 	-nan
scalar Network.dyn_peer[242] 	lookupHopsSig:mean 	-nan
scalar Network.dyn_peer[243] 	lookupTimeSig:mean 	-nan
scalar Network.dyn_peer[243] 	lookupStabilitySig:mean 	-nan
scalar Network.dyn_peer[243] 	lookupHopsSig:mean 	-nan
scalar Network.dyn_peer[244] 	lookupTimeSig:mean 	-nan
scalar Network.dyn_peer[244] 	lookupStabilitySig:mean 	-nan
scalar Network.dyn_peer[244] 	lookupHopsSig:mean 	-nan
scalar Network.dyn_peer[245] 	lookupTimeSig:mean 	-nan
scalar Network.dyn_peer[245] 	lookupStabilitySig:mean 	-nan
scalar Network.dyn_peer[245] 	lookupHopsSig:mean 	-nan
scalar Network.dyn_peer[246] 	lookupTimeSig:mean 	-nan
scalar Network.dyn_peer[246] 	lookupStabilitySig:mean 	-nan
scalar Network.dyn_peer[246] 	lookupHopsSig:mean 	-nan
scalar Network.dyn_peer[247] 	lookupTimeSig:mean 	-nan
scalar Network.dyn_peer[247] 	lookupStabilitySig:mean 	-nan
scalar Network.dyn_peer[247] 	lookupHopsSig:mean 	-nan
scalar Network.dyn_peer[248] 	lookupTimeSig:mean 	-nan
scalar Network.dyn_peer[248] 	lookupStabilitySig:mean 	-nan
scalar Network.dyn_peer[248] 	lookupHopsSig:mean 	-nan
scalar Network.dyn_peer[249] 	lookupTimeSig:mean 	-nan
scalar Network.dyn_peer[249] 	lookupStabilitySig:mean 	-nan
scalar Network.dyn_peer[249] 	lookupHopsSig:mean 	-nan
scalar Network.dyn_peer[250] 	lookupTimeSig:mean 	-nan
scalar Network.dyn_peer[250] 	lookupStabilitySig:mean 	-nan
scalar Network.dyn_peer[250] 	lookupHopsSig:mean 	-nan
scalar Network.dyn_peer[251] 	lookupTimeSig:mean 	-nan
scalar Network.dyn_peer[251] 	lookupStabilitySig:mean 	-nan
scalar Network.dyn_peer[251] 	lookupHopsSig:mean 	-nan
scalar Network.dyn_peer[252] 	lookupTimeSig:mean 	-nan
scalar Network.dyn_peer[252] 	lookupStabilitySig:mean 	-nan
scalar Network.dyn_peer[252] 	lookupHopsSig:mean 	-nan
scalar Network.dyn_peer[253] 	lookupTimeSig:mean 	-nan
scalar Network.dyn_peer[253] 	lookupStabilitySig:mean 	-nan
scalar Network.dyn_peer[253] 	lookupHopsSig:mean 	-nan
scalar Network.dyn_peer[254] 	lookupTimeSig:mean 	-nan
scalar Network.dyn_peer[254] 	lookupStabilitySig:mean 	-nan
scalar Network.dyn_peer[254] 	lookupHopsSig:mean 	-nan
scalar Network.dyn_peer[255] 	lookupTimeSig:mean 	-nan
scalar Network.dyn_peer[255] 	lookupStabilitySig:mean 	-nan
scalar Network.dyn_peer[255] 	lookupHopsSig:mean 	-nan
scalar Network.dyn_peer[256] 	lookupTimeSig:mean 	-nan
scalar Network.dyn_peer[256] 	lookupStabilitySig:mean 	-nan
scalar Network.dyn_peer[256] 	lookupHopsSig:mean 	-nan
scalar Network.dyn_peer[257] 	lookupTimeSig:mean 	-nan
scalar Network.dyn_peer[257] 	lookupStabilitySig:mean 	-nan
scalar Network.dyn_peer[257] 	lookupHopsSig:mean 	-nan
scalar Network.dyn_peer[258] 	lookupTimeSig:mean 	-nan
scalar Network.dyn_peer[258] 	lookupStabilitySig:mean 	-nan
scalar Network.dyn_peer[258] 	lookupHopsSig:mean 	-nan
scalar Network.dyn_peer[259] 	lookupTimeSig:mean 	-nan
scalar Network.dyn_peer[259] 	lookupStabilitySig:mean 	-nan
scalar Network.dyn_peer[259] 	lookupHopsSig:mean 	-nan
scalar Network.dyn_peer[260] 	lookupTimeSig:mean 	-nan
scalar Network.dyn_peer[260] 	lookupStabilitySig:mean 	-nan
scalar Network.dyn_peer[260] 	lookupHopsSig:mean 	-nan
scalar Network.dyn_peer[261] 	lookupTimeSig:mean 	-nan
scalar Network.dyn_peer[261] 	lookupStabilitySig:mean 	-nan
scalar Network.dyn_peer[261] 	lookupHopsSig:mean 	-nan
scalar Network.dyn_peer[262] 	lookupTimeSig:mean 	-nan
scalar Network.dyn_peer[262] 	lookupStabilitySig:mean 	-nan
scalar Network.dyn_peer[262] 	lookupHopsSig:mean 	-nan
scalar Network.dyn_peer[263] 	lookupTimeSig:mean 	-nan
scalar Network.dyn_peer[263] 	lookupStabilitySig:mean 	-nan
scalar Network.dyn_peer[263] 	lookupHopsSig:mean 	-nan
scalar Network.dyn_peer[264] 	lookupTimeSig:mean 	-nan
scalar Network.dyn_peer[264] 	lookupStabilitySig:mean 	-nan
scalar Network.dyn_peer[264] 	lookupHopsSig:mean 	-nan
scalar Network.dyn_peer[265] 	lookupTimeSig:mean 	-nan
scalar Network.dyn_peer[265] 	lookupStabilitySig:mean 	-nan
scalar Network.dyn_peer[265] 	lookupHopsSig:mean 	-nan
scalar Network.dyn_peer[266] 	lookupTimeSig:mean 	-nan
scalar Network.dyn_peer[266] 	lookupStabilitySig:mean 	-nan
scalar Network.dyn_peer[266] 	lookupHopsSig:mean 	-nan
scalar Network.dyn_peer[267] 	lookupTimeSig:mean 	-nan
scalar Network.dyn_peer[267] 	lookupStabilitySig:mean 	-nan
scalar Network.dyn_peer[267] 	lookupHopsSig:mean 	-nan
scalar Network.dyn_peer[268] 	lookupTimeSig:mean 	-nan
scalar Network.dyn_peer[268] 	lookupStabilitySig:mean 	-nan
scalar Network.dyn_peer[268] 	lookupHopsSig:mean 	-nan
scalar Network.dyn_peer[269] 	lookupTimeSig:mean 	-nan
scalar Network.dyn_peer[269] 	lookupStabilitySig:mean 	-nan
scalar Network.dyn_peer[269] 	lookupHopsSig:mean 	-nan
scalar Network.dyn_peer[270] 	lookupTimeSig:mean 	-nan
scalar Network.dyn_peer[270] 	lookupStabilitySig:mean 	-nan
scalar Network.dyn_peer[270] 	lookupHopsSig:mean 	-nan
scalar Network.dyn_peer[271] 	lookupTimeSig:mean 	-nan
scalar Network.dyn_peer[271] 	lookupStabilitySig:mean 	-nan
scalar Network.dyn_peer[271] 	lookupHopsSig:mean 	-nan
scalar Network.dyn_peer[272] 	lookupTimeSig:mean 	-nan
scalar Network.dyn_peer[272] 	lookupStabilitySig:mean 	-nan
scalar Network.dyn_peer[272] 	lookupHopsSig:mean 	-nan
scalar Network.dyn_peer[273] 	lookupTimeSig:mean 	-nan
scalar Network.dyn_peer[273] 	lookupStabilitySig:mean 	-nan
scalar Network.dyn_peer[273] 	lookupHopsSig:mean 	-nan
scalar Network.dyn_peer[274] 	lookupTimeSig:mean 	-nan
scalar Network.dyn_peer[274] 	lookupStabilitySig:mean 	-nan
scalar Network.dyn_peer[274] 	lookupHopsSig:mean 	-nan
scalar Network.dyn_peer[275] 	lookupTimeSig:mean 	-nan
scalar Network.dyn_peer[275] 	lookupStabilitySig:mean 	-nan
scalar Network.dyn_peer[275] 	lookupHopsSig:mean 	-nan
scalar Network.dyn_peer[276] 	lookupTimeSig:mean 	-nan
scalar Network.dyn_peer[276] 	lookupStabilitySig:mean 	-nan
scalar Network.dyn_peer[276] 	lookupHopsSig:mean 	-nan
scalar Network.dyn_peer[277] 	lookupTimeSig:mean 	-nan
scalar Network.dyn_peer[277] 	lookupStabilitySig:mean 	-nan
scalar Network.dyn_peer[277] 	lookupHopsSig:mean 	-nan
scalar Network.dyn_peer[278] 	lookupTimeSig:mean 	-nan
scalar Network.dyn_peer[278] 	lookupStabilitySig:mean 	-nan
scalar Network.dyn_peer[278] 	lookupHopsSig:mean 	-nan
scalar Network.dyn_peer[279] 	lookupTimeSig:mean 	-nan
scalar Network.dyn_peer[279] 	lookupStabilitySig:mean 	-nan
scalar Network.dyn_peer[279] 	lookupHopsSig:mean 	-nan
scalar Network.dyn_peer[280] 	lookupTimeSig:mean 	-nan
scalar Network.dyn_peer[280] 	lookupStabilitySig:mean 	-nan
scalar Network.dyn_peer[280] 	lookupHopsSig:mean 	-nan
scalar Network.dyn_peer[281] 	lookupTimeSig:mean 	-nan
scalar Network.dyn_peer[281] 	lookupStabilitySig:mean 	-nan
scalar Network.dyn_peer[281] 	lookupHopsSig:mean 	-nan
scalar Network.dyn_peer[282] 	lookupTimeSig:mean 	-nan
scalar Network.dyn_peer[282] 	lookupStabilitySig:mean 	-nan
scalar Network.dyn_peer[282] 	lookupHopsSig:mean 	-nan
scalar Network.dyn_peer[283] 	lookupTimeSig:mean 	-nan
scalar Network.dyn_peer[283] 	lookupStabilitySig:mean 	-nan
scalar Network.dyn_peer[283] 	lookupHopsSig:mean 	-nan
scalar Network.dyn_peer[284] 	lookupTimeSig:mean 	-nan
scalar Network.dyn_peer[284] 	lookupStabilitySig:mean 	-nan
scalar Network.dyn_peer[284] 	lookupHopsSig:mean 	-nan
scalar Network.dyn_peer[285] 	lookupTimeSig:mean 	-nan
scalar Network.dyn_peer[285] 	lookupStabilitySig:mean 	-nan
scalar Network.dyn_peer[285] 	lookupHopsSig:mean 	-nan
scalar Network.dyn_peer[286] 	lookupTimeSig:mean 	-nan
scalar Network.dyn_peer[286] 	lookupStabilitySig:mean 	-nan
scalar Network.dyn_peer[286] 	lookupHopsSig:mean 	-nan
scalar Network.dyn_peer[287] 	lookupTimeSig:mean 	-nan
scalar Network.dyn_peer[287] 	lookupStabilitySig:mean 	-nan
scalar Network.dyn_peer[287] 	lookupHopsSig:mean 	-nan
scalar Network.dyn_peer[288] 	lookupTimeSig:mean 	-nan
scalar Network.dyn_peer[288] 	lookupStabilitySig:mean 	-nan
scalar Network.dyn_peer[288] 	lookupHopsSig:mean 	-nan
scalar Network.dyn_peer[289] 	lookupTimeSig:mean 	-nan
scalar Network.dyn_peer[289] 	lookupStabilitySig:mean 	-nan
scalar Network.dyn_peer[289] 	lookupHopsSig:mean 	-nan
scalar Network.dyn_peer[290] 	lookupTimeSig:mean 	-nan
scalar Network.dyn_peer[290] 	lookupStabilitySig:mean 	-nan
scalar Network.dyn_peer[290] 	lookupHopsSig:mean 	-nan
scalar Network.dyn_peer[291] 	lookupTimeSig:mean 	-nan
scalar Network.dyn_peer[291] 	lookupStabilitySig:mean 	-nan
scalar Network.dyn_peer[291] 	lookupHopsSig:mean 	-nan
scalar Network.dyn_peer[292] 	lookupTimeSig:mean 	-nan
scalar Network.dyn_peer[292] 	lookupStabilitySig:mean 	-nan
scalar Network.dyn_peer[292] 	lookupHopsSig:mean 	-nan
scalar Network.dyn_peer[293] 	lookupTimeSig:mean 	-nan
scalar Network.dyn_peer[293] 	lookupStabilitySig:mean 	-nan
scalar Network.dyn_peer[293] 	lookupHopsSig:mean 	-nan
scalar Network.dyn_peer[294] 	lookupTimeSig:mean 	-nan
scalar Network.dyn_peer[294] 	lookupStabilitySig:mean 	-nan
scalar Network.dyn_peer[294] 	lookupHopsSig:mean 	-nan
scalar Network.dyn_peer[295] 	lookupTimeSig:mean 	-nan
scalar Network.dyn_peer[295] 	lookupStabilitySig:mean 	-nan
scalar Network.dyn_peer[295] 	lookupHopsSig:mean 	-nan
scalar Network.dyn_peer[296] 	lookupTimeSig:mean 	-nan
scalar Network.dyn_peer[296] 	lookupStabilitySig:mean 	-nan
scalar Network.dyn_peer[296] 	lookupHopsSig:mean 	-nan
scalar Network.dyn_peer[297] 	lookupTimeSig:mean 	-nan
scalar Network.dyn_peer[297] 	lookupStabilitySig:mean 	-nan
scalar Network.dyn_peer[297] 	lookupHopsSig:mean 	-nan
scalar Network.dyn_peer[298] 	lookupTimeSig:mean 	-nan
scalar Network.dyn_peer[298] 	lookupStabilitySig:mean 	-nan
scalar Network.dyn_peer[298] 	lookupHopsSig:mean 	-nan
scalar Network.dyn_peer[299] 	lookupTimeSig:mean 	-nan
scalar Network.dyn_peer[299] 	lookupStabilitySig:mean 	-nan
scalar Network.dyn_peer[299] 	lookupHopsSig:mean 	-nan
scalar Network.dyn_peer[300] 	lookupTimeSig:mean 	-nan
scalar Network.dyn_peer[300] 	lookupStabilitySig:mean 	-nan
scalar Network.dyn_peer[300] 	lookupHopsSig:mean 	-nan
scalar Network.dyn_peer[301] 	lookupTimeSig:mean 	-nan
scalar Network.dyn_peer[301] 	lookupStabilitySig:mean 	-nan
scalar Network.dyn_peer[301] 	lookupHopsSig:mean 	-nan
scalar Network.dyn_peer[302] 	lookupTimeSig:mean 	-nan
scalar Network.dyn_peer[302] 	lookupStabilitySig:mean 	-nan
scalar Network.dyn_peer[302] 	lookupHopsSig:mean 	-nan
scalar Network.dyn_peer[303] 	lookupTimeSig:mean 	-nan
scalar Network.dyn_peer[303] 	lookupStabilitySig:mean 	-nan
scalar Network.dyn_peer[303] 	lookupHopsSig:mean 	-nan
scalar Network.dyn_peer[304] 	lookupTimeSig:mean 	-nan
scalar Network.dyn_peer[304] 	lookupStabilitySig:mean 	-nan
scalar Network.dyn_peer[304] 	lookupHopsSig:mean 	-nan
scalar Network.dyn_peer[305] 	lookupTimeSig:mean 	-nan
scalar Network.dyn_peer[305] 	lookupStabilitySig:mean 	-nan
scalar Network.dyn_peer[305] 	lookupHopsSig:mean 	-nan
scalar Network.dyn_peer[306] 	lookupTimeSig:mean 	-nan
scalar Network.dyn_peer[306] 	lookupStabilitySig:mean 	-nan
scalar Network.dyn_peer[306] 	lookupHopsSig:mean 	-nan
scalar Network.dyn_peer[307] 	lookupTimeSig:mean 	-nan
scalar Network.dyn_peer[307] 	lookupStabilitySig:mean 	-nan
scalar Network.dyn_peer[307] 	lookupHopsSig:mean 	-nan
scalar Network.dyn_peer[308] 	lookupTimeSig:mean 	-nan
scalar Network.dyn_peer[308] 	lookupStabilitySig:mean 	-nan
scalar Network.dyn_peer[308] 	lookupHopsSig:mean 	-nan
scalar Network.dyn_peer[309] 	lookupTimeSig:mean 	-nan
scalar Network.dyn_peer[309] 	lookupStabilitySig:mean 	-nan
scalar Network.dyn_peer[309] 	lookupHopsSig:mean 	-nan
scalar Network.dyn_peer[310] 	lookupTimeSig:mean 	-nan
scalar Network.dyn_peer[310] 	lookupStabilitySig:mean 	-nan
scalar Network.dyn_peer[310] 	lookupHopsSig:mean 	-nan
scalar Network.dyn_peer[311] 	lookupTimeSig:mean 	-nan
scalar Network.dyn_peer[311] 	lookupStabilitySig:mean 	-nan
scalar Network.dyn_peer[311] 	lookupHopsSig:mean 	-nan
scalar Network.dyn_peer[312] 	lookupTimeSig:mean 	-nan
scalar Network.dyn_peer[312] 	lookupStabilitySig:mean 	-nan
scalar Network.dyn_peer[312] 	lookupHopsSig:mean 	-nan
scalar Network.dyn_peer[313] 	lookupTimeSig:mean 	-nan
scalar Network.dyn_peer[313] 	lookupStabilitySig:mean 	-nan
scalar Network.dyn_peer[313] 	lookupHopsSig:mean 	-nan
scalar Network.dyn_peer[314] 	lookupTimeSig:mean 	-nan
scalar Network.dyn_peer[314] 	lookupStabilitySig:mean 	-nan
scalar Network.dyn_peer[314] 	lookupHopsSig:mean 	-nan
scalar Network.dyn_peer[315] 	lookupTimeSig:mean 	-nan
scalar Network.dyn_peer[315] 	lookupStabilitySig:mean 	-nan
scalar Network.dyn_peer[315] 	lookupHopsSig:mean 	-nan
scalar Network.dyn_peer[316] 	lookupTimeSig:mean 	-nan
scalar Network.dyn_peer[316] 	lookupStabilitySig:mean 	-nan
scalar Network.dyn_peer[316] 	lookupHopsSig:mean 	-nan
scalar Network.dyn_peer[317] 	lookupTimeSig:mean 	-nan
scalar Network.dyn_peer[317] 	lookupStabilitySig:mean 	-nan
scalar Network.dyn_peer[317] 	lookupHopsSig:mean 	-nan
scalar Network.dyn_peer[318] 	lookupTimeSig:mean 	-nan
scalar Network.dyn_peer[318] 	lookupStabilitySig:mean 	-nan
scalar Network.dyn_peer[318] 	lookupHopsSig:mean 	-nan
scalar Network.dyn_peer[319] 	lookupTimeSig:mean 	-nan
scalar Network.dyn_peer[319] 	lookupStabilitySig:mean 	-nan
scalar Network.dyn_peer[319] 	lookupHopsSig:mean 	-nan
scalar Network.dyn_peer[320] 	lookupTimeSig:mean 	-nan
scalar Network.dyn_peer[320] 	lookupStabilitySig:mean 	-nan
scalar Network.dyn_peer[320] 	lookupHopsSig:mean 	-nan
scalar Network.dyn_peer[321] 	lookupTimeSig:mean 	-nan
scalar Network.dyn_peer[321] 	lookupStabilitySig:mean 	-nan
scalar Network.dyn_peer[321] 	lookupHopsSig:mean 	-nan
scalar Network.dyn_peer[322] 	lookupTimeSig:mean 	-nan
scalar Network.dyn_peer[322] 	lookupStabilitySig:mean 	-nan
scalar Network.dyn_peer[322] 	lookupHopsSig:mean 	-nan
scalar Network.dyn_peer[323] 	lookupTimeSig:mean 	-nan
scalar Network.dyn_peer[323] 	lookupStabilitySig:mean 	-nan
scalar Network.dyn_peer[323] 	lookupHopsSig:mean 	-nan
scalar Network.dyn_peer[324] 	lookupTimeSig:mean 	-nan
scalar Network.dyn_peer[324] 	lookupStabilitySig:mean 	-nan
scalar Network.dyn_peer[324] 	lookupHopsSig:mean 	-nan
scalar Network.dyn_peer[325] 	lookupTimeSig:mean 	-nan
scalar Network.dyn_peer[325] 	lookupStabilitySig:mean 	-nan
scalar Network.dyn_peer[325] 	lookupHopsSig:mean 	-nan
scalar Network.dyn_peer[326] 	lookupTimeSig:mean 	-nan
scalar Network.dyn_peer[326] 	lookupStabilitySig:mean 	-nan
scalar Network.dyn_peer[326] 	lookupHopsSig:mean 	-nan
scalar Network.dyn_peer[327] 	lookupTimeSig:mean 	-nan
scalar Network.dyn_peer[327] 	lookupStabilitySig:mean 	-nan
scalar Network.dyn_peer[327] 	lookupHopsSig:mean 	-nan
scalar Network.dyn_peer[328] 	lookupTimeSig:mean 	-nan
scalar Network.dyn_peer[328] 	lookupStabilitySig:mean 	-nan
scalar Network.dyn_peer[328] 	lookupHopsSig:mean 	-nan
scalar Network.dyn_peer[329] 	lookupTimeSig:mean 	-nan
scalar Network.dyn_peer[329] 	lookupStabilitySig:mean 	-nan
scalar Network.dyn_peer[329] 	lookupHopsSig:mean 	-nan
scalar Network.dyn_peer[330] 	lookupTimeSig:mean 	-nan
scalar Network.dyn_peer[330] 	lookupStabilitySig:mean 	-nan
scalar Network.dyn_peer[330] 	lookupHopsSig:mean 	-nan
scalar Network.dyn_peer[331] 	lookupTimeSig:mean 	-nan
scalar Network.dyn_peer[331] 	lookupStabilitySig:mean 	-nan
scalar Network.dyn_peer[331] 	lookupHopsSig:mean 	-nan
scalar Network.dyn_peer[332] 	lookupTimeSig:mean 	-nan
scalar Network.dyn_peer[332] 	lookupStabilitySig:mean 	-nan
scalar Network.dyn_peer[332] 	lookupHopsSig:mean 	-nan
scalar Network.dyn_peer[333] 	lookupTimeSig:mean 	-nan
scalar Network.dyn_peer[333] 	lookupStabilitySig:mean 	-nan
scalar Network.dyn_peer[333] 	lookupHopsSig:mean 	-nan
scalar Network.dyn_peer[334] 	lookupTimeSig:mean 	-nan
scalar Network.dyn_peer[334] 	lookupStabilitySig:mean 	-nan
scalar Network.dyn_peer[334] 	lookupHopsSig:mean 	-nan
scalar Network.dyn_peer[335] 	lookupTimeSig:mean 	-nan
scalar Network.dyn_peer[335] 	lookupStabilitySig:mean 	-nan
scalar Network.dyn_peer[335] 	lookupHopsSig:mean 	-nan
scalar Network.dyn_peer[336] 	lookupTimeSig:mean 	-nan
scalar Network.dyn_peer[336] 	lookupStabilitySig:mean 	-nan
scalar Network.dyn_peer[336] 	lookupHopsSig:mean 	-nan
scalar Network.dyn_peer[337] 	lookupTimeSig:mean 	-nan
scalar Network.dyn_peer[337] 	lookupStabilitySig:mean 	-nan
scalar Network.dyn_peer[337] 	lookupHopsSig:mean 	-nan
scalar Network.dyn_peer[338] 	lookupTimeSig:mean 	-nan
scalar Network.dyn_peer[338] 	lookupStabilitySig:mean 	-nan
scalar Network.dyn_peer[338] 	lookupHopsSig:mean 	-nan
scalar Network.dyn_peer[339] 	lookupTimeSig:mean 	-nan
scalar Network.dyn_peer[339] 	lookupStabilitySig:mean 	-nan
scalar Network.dyn_peer[339] 	lookupHopsSig:mean 	-nan
scalar Network.dyn_peer[340] 	lookupTimeSig:mean 	-nan
scalar Network.dyn_peer[340] 	lookupStabilitySig:mean 	-nan
scalar Network.dyn_peer[340] 	lookupHopsSig:mean 	-nan
scalar Network.dyn_peer[341] 	lookupTimeSig:mean 	-nan
scalar Network.dyn_peer[341] 	lookupStabilitySig:mean 	-nan
scalar Network.dyn_peer[341] 	lookupHopsSig:mean 	-nan
scalar Network.dyn_peer[342] 	lookupTimeSig:mean 	-nan
scalar Network.dyn_peer[342] 	lookupStabilitySig:mean 	-nan
scalar Network.dyn_peer[342] 	lookupHopsSig:mean 	-nan
scalar Network.dyn_peer[343] 	lookupTimeSig:mean 	-nan
scalar Network.dyn_peer[343] 	lookupStabilitySig:mean 	-nan
scalar Network.dyn_peer[343] 	lookupHopsSig:mean 	-nan
scalar Network.dyn_peer[344] 	lookupTimeSig:mean 	-nan
scalar Network.dyn_peer[344] 	lookupStabilitySig:mean 	-nan
scalar Network.dyn_peer[344] 	lookupHopsSig:mean 	-nan
scalar Network.dyn_peer[345] 	lookupTimeSig:mean 	-nan
scalar Network.dyn_peer[345] 	lookupStabilitySig:mean 	-nan
scalar Network.dyn_peer[345] 	lookupHopsSig:mean 	-nan
scalar Network.dyn_peer[346] 	lookupTimeSig:mean 	-nan
scalar Network.dyn_peer[346] 	lookupStabilitySig:mean 	-nan
scalar Network.dyn_peer[346] 	lookupHopsSig:mean 	-nan
scalar Network.dyn_peer[347] 	lookupTimeSig:mean 	-nan
scalar Network.dyn_peer[347] 	lookupStabilitySig:mean 	-nan
scalar Network.dyn_peer[347] 	lookupHopsSig:mean 	-nan
scalar Network.dyn_peer[348] 	lookupTimeSig:mean 	-nan
scalar Network.dyn_peer[348] 	lookupStabilitySig:mean 	-nan
scalar Network.dyn_peer[348] 	lookupHopsSig:mean 	-nan
scalar Network.dyn_peer[349] 	lookupTimeSig:mean 	-nan
scalar Network.dyn_peer[349] 	lookupStabilitySig:mean 	-nan
scalar Network.dyn_peer[349] 	lookupHopsSig:mean 	-nan
scalar Network.dyn_peer[350] 	lookupTimeSig:mean 	-nan
scalar Network.dyn_peer[350] 	lookupStabilitySig:mean 	-nan
scalar Network.dyn_peer[350] 	lookupHopsSig:mean 	-nan
scalar Network.dyn_peer[351] 	lookupTimeSig:mean 	-nan
scalar Network.dyn_peer[351] 	lookupStabilitySig:mean 	-nan
scalar Network.dyn_peer[351] 	lookupHopsSig:mean 	-nan
scalar Network.dyn_peer[352] 	lookupTimeSig:mean 	-nan
scalar Network.dyn_peer[352] 	lookupStabilitySig:mean 	-nan
scalar Network.dyn_peer[352] 	lookupHopsSig:mean 	-nan
scalar Network.dyn_peer[353] 	lookupTimeSig:mean 	-nan
scalar Network.dyn_peer[353] 	lookupStabilitySig:mean 	-nan
scalar Network.dyn_peer[353] 	lookupHopsSig:mean 	-nan
scalar Network.dyn_peer[354] 	lookupTimeSig:mean 	-nan
scalar Network.dyn_peer[354] 	lookupStabilitySig:mean 	-nan
scalar Network.dyn_peer[354] 	lookupHopsSig:mean 	-nan
scalar Network.dyn_peer[355] 	lookupTimeSig:mean 	-nan
scalar Network.dyn_peer[355] 	lookupStabilitySig:mean 	-nan
scalar Network.dyn_peer[355] 	lookupHopsSig:mean 	-nan
scalar Network.dyn_peer[356] 	lookupTimeSig:mean 	-nan
scalar Network.dyn_peer[356] 	lookupStabilitySig:mean 	-nan
scalar Network.dyn_peer[356] 	lookupHopsSig:mean 	-nan
scalar Network.dyn_peer[357] 	lookupTimeSig:mean 	-nan
scalar Network.dyn_peer[357] 	lookupStabilitySig:mean 	-nan
scalar Network.dyn_peer[357] 	lookupHopsSig:mean 	-nan
scalar Network.dyn_peer[358] 	lookupTimeSig:mean 	-nan
scalar Network.dyn_peer[358] 	lookupStabilitySig:mean 	-nan
scalar Network.dyn_peer[358] 	lookupHopsSig:mean 	-nan
scalar Network.dyn_peer[359] 	lookupTimeSig:mean 	-nan
scalar Network.dyn_peer[359] 	lookupStabilitySig:mean 	-nan
scalar Network.dyn_peer[359] 	lookupHopsSig:mean 	-nan
scalar Network.dyn_peer[360] 	lookupTimeSig:mean 	-nan
scalar Network.dyn_peer[360] 	lookupStabilitySig:mean 	-nan
scalar Network.dyn_peer[360] 	lookupHopsSig:mean 	-nan
scalar Network.dyn_peer[361] 	lookupTimeSig:mean 	-nan
scalar Network.dyn_peer[361] 	lookupStabilitySig:mean 	-nan
scalar Network.dyn_peer[361] 	lookupHopsSig:mean 	-nan
scalar Network.dyn_peer[362] 	lookupTimeSig:mean 	-nan
scalar Network.dyn_peer[362] 	lookupStabilitySig:mean 	-nan
scalar Network.dyn_peer[362] 	lookupHopsSig:mean 	-nan
scalar Network.dyn_peer[363] 	lookupTimeSig:mean 	-nan
scalar Network.dyn_peer[363] 	lookupStabilitySig:mean 	-nan
scalar Network.dyn_peer[363] 	lookupHopsSig:mean 	-nan
scalar Network.dyn_peer[364] 	lookupTimeSig:mean 	-nan
scalar Network.dyn_peer[364] 	lookupStabilitySig:mean 	-nan
scalar Network.dyn_peer[364] 	lookupHopsSig:mean 	-nan
scalar Network.dyn_peer[365] 	lookupTimeSig:mean 	-nan
scalar Network.dyn_peer[365] 	lookupStabilitySig:mean 	-nan
scalar Network.dyn_peer[365] 	lookupHopsSig:mean 	-nan
scalar Network.dyn_peer[366] 	lookupTimeSig:mean 	-nan
scalar Network.dyn_peer[366] 	lookupStabilitySig:mean 	-nan
scalar Network.dyn_peer[366] 	lookupHopsSig:mean 	-nan
scalar Network.dyn_peer[367] 	lookupTimeSig:mean 	-nan
scalar Network.dyn_peer[367] 	lookupStabilitySig:mean 	-nan
scalar Network.dyn_peer[367] 	lookupHopsSig:mean 	-nan
scalar Network.dyn_peer[368] 	lookupTimeSig:mean 	-nan
scalar Network.dyn_peer[368] 	lookupStabilitySig:mean 	-nan
scalar Network.dyn_peer[368] 	lookupHopsSig:mean 	-nan
scalar Network.dyn_peer[369] 	lookupTimeSig:mean 	-nan
scalar Network.dyn_peer[369] 	lookupStabilitySig:mean 	-nan
scalar Network.dyn_peer[369] 	lookupHopsSig:mean 	-nan
scalar Network.dyn_peer[370] 	lookupTimeSig:mean 	-nan
scalar Network.dyn_peer[370] 	lookupStabilitySig:mean 	-nan
scalar Network.dyn_peer[370] 	lookupHopsSig:mean 	-nan
scalar Network.dyn_peer[371] 	lookupTimeSig:mean 	-nan
scalar Network.dyn_peer[371] 	lookupStabilitySig:mean 	-nan
scalar Network.dyn_peer[371] 	lookupHopsSig:mean 	-nan
scalar Network.dyn_peer[372] 	lookupTimeSig:mean 	-nan
scalar Network.dyn_peer[372] 	lookupStabilitySig:mean 	-nan
scalar Network.dyn_peer[372] 	lookupHopsSig:mean 	-nan
scalar Network.dyn_peer[373] 	lookupTimeSig:mean 	-nan
scalar Network.dyn_peer[373] 	lookupStabilitySig:mean 	-nan
scalar Network.dyn_peer[373] 	lookupHopsSig:mean 	-nan
scalar Network.dyn_peer[374] 	lookupTimeSig:mean 	-nan
scalar Network.dyn_peer[374] 	lookupStabilitySig:mean 	-nan
scalar Network.dyn_peer[374] 	lookupHopsSig:mean 	-nan
scalar Network.dyn_peer[375] 	lookupTimeSig:mean 	-nan
scalar Network.dyn_peer[375] 	lookupStabilitySig:mean 	-nan
scalar Network.dyn_peer[375] 	lookupHopsSig:mean 	-nan
scalar Network.dyn_peer[376] 	lookupTimeSig:mean 	-nan
scalar Network.dyn_peer[376] 	lookupStabilitySig:mean 	-nan
scalar Network.dyn_peer[376] 	lookupHopsSig:mean 	-nan
scalar Network.dyn_peer[377] 	lookupTimeSig:mean 	-nan
scalar Network.dyn_peer[377] 	lookupStabilitySig:mean 	-nan
scalar Network.dyn_peer[377] 	lookupHopsSig:mean 	-nan
scalar Network.dyn_peer[378] 	lookupTimeSig:mean 	-nan
scalar Network.dyn_peer[378] 	lookupStabilitySig:mean 	-nan
scalar Network.dyn_peer[378] 	lookupHopsSig:mean 	-nan
scalar Network.dyn_peer[379] 	lookupTimeSig:mean 	-nan
scalar Network.dyn_peer[379] 	lookupStabilitySig:mean 	-nan
scalar Network.dyn_peer[379] 	lookupHopsSig:mean 	-nan
scalar Network.dyn_peer[380] 	lookupTimeSig:mean 	-nan
scalar Network.dyn_peer[380] 	lookupStabilitySig:mean 	-nan
scalar Network.dyn_peer[380] 	lookupHopsSig:mean 	-nan
scalar Network.dyn_peer[381] 	lookupTimeSig:mean 	-nan
scalar Network.dyn_peer[381] 	lookupStabilitySig:mean 	-nan
scalar Network.dyn_peer[381] 	lookupHopsSig:mean 	-nan
scalar Network.dyn_peer[382] 	lookupTimeSig:mean 	-nan
scalar Network.dyn_peer[382] 	lookupStabilitySig:mean 	-nan
scalar Network.dyn_peer[382] 	lookupHopsSig:mean 	-nan
scalar Network.dyn_peer[383] 	lookupTimeSig:mean 	-nan
scalar Network.dyn_peer[383] 	lookupStabilitySig:mean 	-nan
scalar Network.dyn_peer[383] 	lookupHopsSig:mean 	-nan
scalar Network.dyn_peer[384] 	lookupTimeSig:mean 	-nan
scalar Network.dyn_peer[384] 	lookupStabilitySig:mean 	-nan
scalar Network.dyn_peer[384] 	lookupHopsSig:mean 	-nan
scalar Network.dyn_peer[385] 	lookupTimeSig:mean 	-nan
scalar Network.dyn_peer[385] 	lookupStabilitySig:mean 	-nan
scalar Network.dyn_peer[385] 	lookupHopsSig:mean 	-nan
scalar Network.dyn_peer[386] 	lookupTimeSig:mean 	-nan
scalar Network.dyn_peer[386] 	lookupStabilitySig:mean 	-nan
scalar Network.dyn_peer[386] 	lookupHopsSig:mean 	-nan
scalar Network.dyn_peer[387] 	lookupTimeSig:mean 	-nan
scalar Network.dyn_peer[387] 	lookupStabilitySig:mean 	-nan
scalar Network.dyn_peer[387] 	lookupHopsSig:mean 	-nan
scalar Network.dyn_peer[388] 	lookupTimeSig:mean 	-nan
scalar Network.dyn_peer[388] 	lookupStabilitySig:mean 	-nan
scalar Network.dyn_peer[388] 	lookupHopsSig:mean 	-nan
scalar Network.dyn_peer[389] 	lookupTimeSig:mean 	-nan
scalar Network.dyn_peer[389] 	lookupStabilitySig:mean 	-nan
scalar Network.dyn_peer[389] 	lookupHopsSig:mean 	-nan
scalar Network.dyn_peer[390] 	lookupTimeSig:mean 	-nan
scalar Network.dyn_peer[390] 	lookupStabilitySig:mean 	-nan
scalar Network.dyn_peer[390] 	lookupHopsSig:mean 	-nan
scalar Network.dyn_peer[391] 	lookupTimeSig:mean 	-nan
scalar Network.dyn_peer[391] 	lookupStabilitySig:mean 	-nan
scalar Network.dyn_peer[391] 	lookupHopsSig:mean 	-nan
scalar Network.dyn_peer[392] 	lookupTimeSig:mean 	-nan
scalar Network.dyn_peer[392] 	lookupStabilitySig:mean 	-nan
scalar Network.dyn_peer[392] 	lookupHopsSig:mean 	-nan
scalar Network.dyn_peer[393] 	lookupTimeSig:mean 	-nan
scalar Network.dyn_peer[393] 	lookupStabilitySig:mean 	-nan
scalar Network.dyn_peer[393] 	lookupHopsSig:mean 	-nan
scalar Network.dyn_peer[394] 	lookupTimeSig:mean 	-nan
scalar Network.dyn_peer[394] 	lookupStabilitySig:mean 	-nan
scalar Network.dyn_peer[394] 	lookupHopsSig:mean 	-nan
scalar Network.dyn_peer[395] 	lookupTimeSig:mean 	-nan
scalar Network.dyn_peer[395] 	lookupStabilitySig:mean 	-nan
scalar Network.dyn_peer[395] 	lookupHopsSig:mean 	-nan
scalar Network.dyn_peer[396] 	lookupTimeSig:mean 	-nan
scalar Network.dyn_peer[396] 	lookupStabilitySig:mean 	-nan
scalar Network.dyn_peer[396] 	lookupHopsSig:mean 	-nan
scalar Network.dyn_peer[397] 	lookupTimeSig:mean 	-nan
scalar Network.dyn_peer[397] 	lookupStabilitySig:mean 	-nan
scalar Network.dyn_peer[397] 	lookupHopsSig:mean 	-nan
scalar Network.dyn_peer[398] 	lookupTimeSig:mean 	-nan
scalar Network.dyn_peer[398] 	lookupStabilitySig:mean 	-nan
scalar Network.dyn_peer[398] 	lookupHopsSig:mean 	-nan
scalar Network.dyn_peer[399] 	lookupTimeSig:mean 	-nan
scalar Network.dyn_peer[399] 	lookupStabilitySig:mean 	-nan
scalar Network.dyn_peer[399] 	lookupHopsSig:mean 	-nan
scalar Network.dyn_peer[400] 	lookupTimeSig:mean 	-nan
scalar Network.dyn_peer[400] 	lookupStabilitySig:mean 	-nan
scalar Network.dyn_peer[400] 	lookupHopsSig:mean 	-nan
scalar Network.dyn_peer[401] 	lookupTimeSig:mean 	-nan
scalar Network.dyn_peer[401] 	lookupStabilitySig:mean 	-nan
scalar Network.dyn_peer[401] 	lookupHopsSig:mean 	-nan
scalar Network.dyn_peer[402] 	lookupTimeSig:mean 	-nan
scalar Network.dyn_peer[402] 	lookupStabilitySig:mean 	-nan
scalar Network.dyn_peer[402] 	lookupHopsSig:mean 	-nan
scalar Network.dyn_peer[403] 	lookupTimeSig:mean 	-nan
scalar Network.dyn_peer[403] 	lookupStabilitySig:mean 	-nan
scalar Network.dyn_peer[403] 	lookupHopsSig:mean 	-nan
scalar Network.dyn_peer[404] 	lookupTimeSig:mean 	-nan
scalar Network.dyn_peer[404] 	lookupStabilitySig:mean 	-nan
scalar Network.dyn_peer[404] 	lookupHopsSig:mean 	-nan
scalar Network.dyn_peer[405] 	lookupTimeSig:mean 	-nan
scalar Network.dyn_peer[405] 	lookupStabilitySig:mean 	-nan
scalar Network.dyn_peer[405] 	lookupHopsSig:mean 	-nan
scalar Network.dyn_peer[406] 	lookupTimeSig:mean 	-nan
scalar Network.dyn_peer[406] 	lookupStabilitySig:mean 	-nan
scalar Network.dyn_peer[406] 	lookupHopsSig:mean 	-nan
scalar Network.dyn_peer[407] 	lookupTimeSig:mean 	-nan
scalar Network.dyn_peer[407] 	lookupStabilitySig:mean 	-nan
scalar Network.dyn_peer[407] 	lookupHopsSig:mean 	-nan
scalar Network.dyn_peer[408] 	lookupTimeSig:mean 	-nan
scalar Network.dyn_peer[408] 	lookupStabilitySig:mean 	-nan
scalar Network.dyn_peer[408] 	lookupHopsSig:mean 	-nan
scalar Network.dyn_peer[409] 	lookupTimeSig:mean 	-nan
scalar Network.dyn_peer[409] 	lookupStabilitySig:mean 	-nan
scalar Network.dyn_peer[409] 	lookupHopsSig:mean 	-nan
scalar Network.dyn_peer[410] 	lookupTimeSig:mean 	-nan
scalar Network.dyn_peer[410] 	lookupStabilitySig:mean 	-nan
scalar Network.dyn_peer[410] 	lookupHopsSig:mean 	-nan
scalar Network.dyn_peer[411] 	lookupTimeSig:mean 	-nan
scalar Network.dyn_peer[411] 	lookupStabilitySig:mean 	-nan
scalar Network.dyn_peer[411] 	lookupHopsSig:mean 	-nan
scalar Network.dyn_peer[412] 	lookupTimeSig:mean 	-nan
scalar Network.dyn_peer[412] 	lookupStabilitySig:mean 	-nan
scalar Network.dyn_peer[412] 	lookupHopsSig:mean 	-nan
scalar Network.dyn_peer[413] 	lookupTimeSig:mean 	-nan
scalar Network.dyn_peer[413] 	lookupStabilitySig:mean 	-nan
scalar Network.dyn_peer[413] 	lookupHopsSig:mean 	-nan
scalar Network.dyn_peer[414] 	lookupTimeSig:mean 	-nan
scalar Network.dyn_peer[414] 	lookupStabilitySig:mean 	-nan
scalar Network.dyn_peer[414] 	lookupHopsSig:mean 	-nan
scalar Network.dyn_peer[415] 	lookupTimeSig:mean 	-nan
scalar Network.dyn_peer[415] 	lookupStabilitySig:mean 	-nan
scalar Network.dyn_peer[415] 	lookupHopsSig:mean 	-nan
scalar Network.dyn_peer[416] 	lookupTimeSig:mean 	-nan
scalar Network.dyn_peer[416] 	lookupStabilitySig:mean 	-nan
scalar Network.dyn_peer[416] 	lookupHopsSig:mean 	-nan
scalar Network.dyn_peer[417] 	lookupTimeSig:mean 	-nan
scalar Network.dyn_peer[417] 	lookupStabilitySig:mean 	-nan
scalar Network.dyn_peer[417] 	lookupHopsSig:mean 	-nan
scalar Network.dyn_peer[418] 	lookupTimeSig:mean 	-nan
scalar Network.dyn_peer[418] 	lookupStabilitySig:mean 	-nan
scalar Network.dyn_peer[418] 	lookupHopsSig:mean 	-nan
scalar Network.dyn_peer[419] 	lookupTimeSig:mean 	-nan
scalar Network.dyn_peer[419] 	lookupStabilitySig:mean 	-nan
scalar Network.dyn_peer[419] 	lookupHopsSig:mean 	-nan
scalar Network.dyn_peer[420] 	lookupTimeSig:mean 	-nan
scalar Network.dyn_peer[420] 	lookupStabilitySig:mean 	-nan
scalar Network.dyn_peer[420] 	lookupHopsSig:mean 	-nan
scalar Network.dyn_peer[421] 	lookupTimeSig:mean 	-nan
scalar Network.dyn_peer[421] 	lookupStabilitySig:mean 	-nan
scalar Network.dyn_peer[421] 	lookupHopsSig:mean 	-nan
scalar Network.dyn_peer[422] 	lookupTimeSig:mean 	-nan
scalar Network.dyn_peer[422] 	lookupStabilitySig:mean 	-nan
scalar Network.dyn_peer[422] 	lookupHopsSig:mean 	-nan
scalar Network.dyn_peer[423] 	lookupTimeSig:mean 	-nan
scalar Network.dyn_peer[423] 	lookupStabilitySig:mean 	-nan
scalar Network.dyn_peer[423] 	lookupHopsSig:mean 	-nan
scalar Network.dyn_peer[424] 	lookupTimeSig:mean 	-nan
scalar Network.dyn_peer[424] 	lookupStabilitySig:mean 	-nan
scalar Network.dyn_peer[424] 	lookupHopsSig:mean 	-nan
scalar Network.dyn_peer[425] 	lookupTimeSig:mean 	-nan
scalar Network.dyn_peer[425] 	lookupStabilitySig:mean 	-nan
scalar Network.dyn_peer[425] 	lookupHopsSig:mean 	-nan
scalar Network.dyn_peer[426] 	lookupTimeSig:mean 	-nan
scalar Network.dyn_peer[426] 	lookupStabilitySig:mean 	-nan
scalar Network.dyn_peer[426] 	lookupHopsSig:mean 	-nan
scalar Network.dyn_peer[427] 	lookupTimeSig:mean 	-nan
scalar Network.dyn_peer[427] 	lookupStabilitySig:mean 	-nan
scalar Network.dyn_peer[427] 	lookupHopsSig:mean 	-nan
scalar Network.dyn_peer[428] 	lookupTimeSig:mean 	-nan
scalar Network.dyn_peer[428] 	lookupStabilitySig:mean 	-nan
scalar Network.dyn_peer[428] 	lookupHopsSig:mean 	-nan
scalar Network.dyn_peer[429] 	lookupTimeSig:mean 	-nan
scalar Network.dyn_peer[429] 	lookupStabilitySig:mean 	-nan
scalar Network.dyn_peer[429] 	lookupHopsSig:mean 	-nan
scalar Network.dyn_peer[430] 	lookupTimeSig:mean 	-nan
scalar Network.dyn_peer[430] 	lookupStabilitySig:mean 	-nan
scalar Network.dyn_peer[430] 	lookupHopsSig:mean 	-nan
scalar Network.dyn_peer[431] 	lookupTimeSig:mean 	-nan
scalar Network.dyn_peer[431] 	lookupStabilitySig:mean 	-nan
scalar Network.dyn_peer[431] 	lookupHopsSig:mean 	-nan
scalar Network.dyn_peer[432] 	lookupTimeSig:mean 	-nan
scalar Network.dyn_peer[432] 	lookupStabilitySig:mean 	-nan
scalar Network.dyn_peer[432] 	lookupHopsSig:mean 	-nan
scalar Network.dyn_peer[433] 	lookupTimeSig:mean 	-nan
scalar Network.dyn_peer[433] 	lookupStabilitySig:mean 	-nan
scalar Network.dyn_peer[433] 	lookupHopsSig:mean 	-nan
scalar Network.dyn_peer[434] 	lookupTimeSig:mean 	-nan
scalar Network.dyn_peer[434] 	lookupStabilitySig:mean 	-nan
scalar Network.dyn_peer[434] 	lookupHopsSig:mean 	-nan
scalar Network.dyn_peer[435] 	lookupTimeSig:mean 	-nan
scalar Network.dyn_peer[435] 	lookupStabilitySig:mean 	-nan
scalar Network.dyn_peer[435] 	lookupHopsSig:mean 	-nan
scalar Network.dyn_peer[436] 	lookupTimeSig:mean 	-nan
scalar Network.dyn_peer[436] 	lookupStabilitySig:mean 	-nan
scalar Network.dyn_peer[436] 	lookupHopsSig:mean 	-nan
scalar Network.dyn_peer[437] 	lookupTimeSig:mean 	-nan
scalar Network.dyn_peer[437] 	lookupStabilitySig:mean 	-nan
scalar Network.dyn_peer[437] 	lookupHopsSig:mean 	-nan
scalar Network.dyn_peer[438] 	lookupTimeSig:mean 	-nan
scalar Network.dyn_peer[438] 	lookupStabilitySig:mean 	-nan
scalar Network.dyn_peer[438] 	lookupHopsSig:mean 	-nan
scalar Network.dyn_peer[439] 	lookupTimeSig:mean 	-nan
scalar Network.dyn_peer[439] 	lookupStabilitySig:mean 	-nan
scalar Network.dyn_peer[439] 	lookupHopsSig:mean 	-nan
scalar Network.dyn_peer[440] 	lookupTimeSig:mean 	-nan
scalar Network.dyn_peer[440] 	lookupStabilitySig:mean 	-nan
scalar Network.dyn_peer[440] 	lookupHopsSig:mean 	-nan
scalar Network.dyn_peer[441] 	lookupTimeSig:mean 	-nan
scalar Network.dyn_peer[441] 	lookupStabilitySig:mean 	-nan
scalar Network.dyn_peer[441] 	lookupHopsSig:mean 	-nan
scalar Network.dyn_peer[442] 	lookupTimeSig:mean 	-nan
scalar Network.dyn_peer[442] 	lookupStabilitySig:mean 	-nan
scalar Network.dyn_peer[442] 	lookupHopsSig:mean 	-nan
scalar Network.dyn_peer[443] 	lookupTimeSig:mean 	-nan
scalar Network.dyn_peer[443] 	lookupStabilitySig:mean 	-nan
scalar Network.dyn_peer[443] 	lookupHopsSig:mean 	-nan
scalar Network.dyn_peer[444] 	lookupTimeSig:mean 	-nan
scalar Network.dyn_peer[444] 	lookupStabilitySig:mean 	-nan
scalar Network.dyn_peer[444] 	lookupHopsSig:mean 	-nan
scalar Network.dyn_peer[445] 	lookupTimeSig:mean 	-nan
scalar Network.dyn_peer[445] 	lookupStabilitySig:mean 	-nan
scalar Network.dyn_peer[445] 	lookupHopsSig:mean 	-nan
scalar Network.dyn_peer[446] 	lookupTimeSig:mean 	-nan
scalar Network.dyn_peer[446] 	lookupStabilitySig:mean 	-nan
scalar Network.dyn_peer[446] 	lookupHopsSig:mean 	-nan
scalar Network.dyn_peer[447] 	lookupTimeSig:mean 	-nan
scalar Network.dyn_peer[447] 	lookupStabilitySig:mean 	-nan
scalar Network.dyn_peer[447] 	lookupHopsSig:mean 	-nan
scalar Network.dyn_peer[448] 	lookupTimeSig:mean 	-nan
scalar Network.dyn_peer[448] 	lookupStabilitySig:mean 	-nan
scalar Network.dyn_peer[448] 	lookupHopsSig:mean 	-nan
scalar Network.dyn_peer[449] 	lookupTimeSig:mean 	-nan
scalar Network.dyn_peer[449] 	lookupStabilitySig:mean 	-nan
scalar Network.dyn_peer[449] 	lookupHopsSig:mean 	-nan
scalar Network.dyn_peer[450] 	lookupTimeSig:mean 	-nan
scalar Network.dyn_peer[450] 	lookupStabilitySig:mean 	-nan
scalar Network.dyn_peer[450] 	lookupHopsSig:mean 	-nan
scalar Network.dyn_peer[451] 	lookupTimeSig:mean 	-nan
scalar Network.dyn_peer[451] 	lookupStabilitySig:mean 	-nan
scalar Network.dyn_peer[451] 	lookupHopsSig:mean 	-nan
scalar Network.dyn_peer[452] 	lookupTimeSig:mean 	-nan
scalar Network.dyn_peer[452] 	lookupStabilitySig:mean 	-nan
scalar Network.dyn_peer[452] 	lookupHopsSig:mean 	-nan
scalar Network.dyn_peer[453] 	lookupTimeSig:mean 	-nan
scalar Network.dyn_peer[453] 	lookupStabilitySig:mean 	-nan
scalar Network.dyn_peer[453] 	lookupHopsSig:mean 	-nan
scalar Network.dyn_peer[454] 	lookupTimeSig:mean 	-nan
scalar Network.dyn_peer[454] 	lookupStabilitySig:mean 	-nan
scalar Network.dyn_peer[454] 	lookupHopsSig:mean 	-nan
scalar Network.dyn_peer[455] 	lookupTimeSig:mean 	-nan
scalar Network.dyn_peer[455] 	lookupStabilitySig:mean 	-nan
scalar Network.dyn_peer[455] 	lookupHopsSig:mean 	-nan
scalar Network.dyn_peer[456] 	lookupTimeSig:mean 	-nan
scalar Network.dyn_peer[456] 	lookupStabilitySig:mean 	-nan
scalar Network.dyn_peer[456] 	lookupHopsSig:mean 	-nan
scalar Network.dyn_peer[457] 	lookupTimeSig:mean 	-nan
scalar Network.dyn_peer[457] 	lookupStabilitySig:mean 	-nan
scalar Network.dyn_peer[457] 	lookupHopsSig:mean 	-nan
scalar Network.dyn_peer[458] 	lookupTimeSig:mean 	-nan
scalar Network.dyn_peer[458] 	lookupStabilitySig:mean 	-nan
scalar Network.dyn_peer[458] 	lookupHopsSig:mean 	-nan
scalar Network.dyn_peer[459] 	lookupTimeSig:mean 	-nan
scalar Network.dyn_peer[459] 	lookupStabilitySig:mean 	-nan
scalar Network.dyn_peer[459] 	lookupHopsSig:mean 	-nan
scalar Network.dyn_peer[460] 	lookupTimeSig:mean 	-nan
scalar Network.dyn_peer[460] 	lookupStabilitySig:mean 	-nan
scalar Network.dyn_peer[460] 	lookupHopsSig:mean 	-nan
scalar Network.dyn_peer[461] 	lookupTimeSig:mean 	-nan
scalar Network.dyn_peer[461] 	lookupStabilitySig:mean 	-nan
scalar Network.dyn_peer[461] 	lookupHopsSig:mean 	-nan
scalar Network.dyn_peer[462] 	lookupTimeSig:mean 	-nan
scalar Network.dyn_peer[462] 	lookupStabilitySig:mean 	-nan
scalar Network.dyn_peer[462] 	lookupHopsSig:mean 	-nan
scalar Network.dyn_peer[463] 	lookupTimeSig:mean 	-nan
scalar Network.dyn_peer[463] 	lookupStabilitySig:mean 	-nan
scalar Network.dyn_peer[463] 	lookupHopsSig:mean 	-nan
scalar Network.dyn_peer[464] 	lookupTimeSig:mean 	-nan
scalar Network.dyn_peer[464] 	lookupStabilitySig:mean 	-nan
scalar Network.dyn_peer[464] 	lookupHopsSig:mean 	-nan
scalar Network.dyn_peer[465] 	lookupTimeSig:mean 	-nan
[...]
scalar Network.dyn_peer[883] 	lookupTimeSig:mean 	-nan
scalar Network.dyn_peer[883] 	lookupStabilitySig:mean 	-nan
scalar Network.dyn_peer[883] 	lookupHopsSig:mean 	-nan
scalar Network.dyn_peer[884] 	lookupTimeSig:mean 	-nan
scalar Network.dyn_peer[884] 	lookupStabilitySig:mean 	-nan
scalar Network.dyn_peer[884] 	lookupHopsSig:mean 	-nan
scalar Network.dyn_peer[885] 	lookupTimeSig:mean 	-nan
scalar Network.dyn_peer[885] 	lookupStabilitySig:mean 	-nan
scalar Network.dyn_peer[885] 	lookupHopsSig:mean 	-nan
scalar Network.dyn_peer[886] 	lookupTimeSig:mean 	-nan
scalar Network.dyn_peer[886] 	lookupStabilitySig:mean 	-nan
scalar Network.dyn_peer[886] 	lookupHopsSig:mean 	-nan
scalar Network.dyn_peer[887] 	lookupTimeSig:mean 	-nan
scalar Network.dyn_peer[887] 	lookupStabilitySig:mean 	-nan
scalar Network.dyn_peer[887] 	lookupHopsSig:mean 	-nan
scalar Network.dyn_peer[888] 	lookupTimeSig:mean 	-nan
scalar Network.dyn_peer[888] 	lookupStabilitySig:mean 	-nan
scalar Network.dyn_peer[888] 	lookupHopsSig:mean 	-nan
scalar Network.dyn_peer[889] 	lookupTimeSig:mean 	-nan
scalar Network.dyn_peer[889] 	lookupStabilitySig:mean 	-nan
scalar Network.dyn_peer[889] 	lookupHopsSig:mean 	-nan
scalar Network.dyn_peer[890] 	lookupTimeSig:mean 	-nan
scalar Network.dyn_peer[890] 	lookupStabilitySig:mean 	-nan
scalar Network.dyn_peer[890] 	lookupHopsSig:mean 	-nan
scalar Network.dyn_peer[891] 	lookupTimeSig:mean 	-nan
scalar Network.dyn_peer[891] 	lookupStabilitySig:mean 	-nan
scalar Network.dyn_peer[891] 	lookupHopsSig:mean 	-nan
scalar Network.dyn_peer[892] 	lookupTimeSig:mean 	-nan
scalar Network.dyn_peer[892] 	lookupStabilitySig:mean 	-nan
scalar Network.dyn_peer[892] 	lookupHopsSig:mean 	-nan
scalar Network.dyn_peer[893] 	lookupTimeSig:mean 	-nan
scalar Network.dyn_peer[893] 	lookupStabilitySig:mean 	-nan
scalar Network.dyn_peer[893] 	lookupHopsSig:mean 	-nan
scalar Network.dyn_peer[894] 	lookupTimeSig:mean 	-nan
scalar Network.dyn_peer[894] 	lookupStabilitySig:mean 	-nan
scalar Network.dyn_peer[894] 	lookupHopsSig:mean 	-nan
scalar Network.dyn_peer[895] 	lookupTimeSig:mean 	-nan
scalar Network.dyn_peer[895] 	lookupStabilitySig:mean 	-nan
scalar Network.dyn_peer[895] 	lookupHopsSig:mean 	-nan
scalar Network.dyn_peer[896] 	lookupTimeSig:mean 	-nan
scalar Network.dyn_peer[896] 	lookupStabilitySig:mean 	-nan
scalar Network.dyn_peer[896] 	lookupHopsSig:mean 	-nan
scalar Network.dyn_peer[897] 	lookupTimeSig:mean 	-nan
scalar Network.dyn_peer[897] 	lookupStabilitySig:mean 	-nan
scalar Network.dyn_peer[897] 	lookupHopsSig:mean 	-nan
scalar Network.dyn_peer[898] 	lookupTimeSig:mean 	-nan
scalar Network.dyn_peer[898] 	lookupStabilitySig:mean 	-nan
scalar Network.dyn_peer[898] 	lookupHopsSig:mean 	-nan
scalar Network.dyn_peer[899] 	lookupTimeSig:mean 	-nan
scalar Network.dyn_peer[899] 	lookupStabilitySig:mean 	-nan
scalar Network.dyn_peer[899] 	lookupHopsSig:mean 	-nan
scalar Network.dyn_peer[900] 	lookupTimeSig:mean 	-nan
scalar Network.dyn_peer[900] 	lookupStabilitySig:mean 	-nan
scalar Network.dyn_peer[900] 	lookupHopsSig:mean 	-nan
scalar Network.dyn_peer[901] 	lookupTimeSig:mean 	-nan
scalar Network.dyn_peer[901] 	lookupStabilitySig:mean 	-nan
scalar Network.dyn_peer[901] 	lookupHopsSig:mean 	-nan
scalar Network.dyn_peer[902] 	lookupTimeSig:mean 	-nan
scalar Network.dyn_peer[902] 	lookupStabilitySig:mean 	-nan
scalar Network.dyn_peer[902] 	lookupHopsSig:mean 	-nan
scalar Network.dyn_peer[903] 	lookupTimeSig:mean 	-nan
scalar Network.dyn_peer[903] 	lookupStabilitySig:mean 	-nan
scalar Network.dyn_peer[903] 	lookupHopsSig:mean 	-nan
scalar Network.dyn_peer[904] 	lookupTimeSig:mean 	-nan
scalar Network.dyn_peer[904] 	lookupStabilitySig:mean 	-nan
scalar Network.dyn_peer[904] 	lookupHopsSig:mean 	-nan
scalar Network.dyn_peer[905] 	lookupTimeSig:mean 	-nan
scalar Network.dyn_peer[905] 	lookupStabilitySig:mean 	-nan
scalar Network.dyn_peer[905] 	lookupHopsSig:mean 	-nan
scalar Network.dyn_peer[906] 	lookupTimeSig:mean 	-nan
scalar Network.dyn_peer[906] 	lookupStabilitySig:mean 	-nan
scalar Network.dyn_peer[906] 	lookupHopsSig:mean 	-nan
scalar Network.dyn_peer[907] 	lookupTimeSig:mean 	-nan
scalar Network.dyn_peer[907] 	lookupStabilitySig:mean 	-nan
scalar Network.dyn_peer[907] 	lookupHopsSig:mean 	-nan
scalar Network.dyn_peer[908] 	lookupTimeSig:mean 	-nan
scalar Network.dyn_peer[908] 	lookupStabilitySig:mean 	-nan
scalar Network.dyn_peer[908] 	lookupHopsSig:mean 	-nan
scalar Network.dyn_peer[909] 	lookupTimeSig:mean 	-nan
scalar Network.dyn_peer[909] 	lookupStabilitySig:mean 	-nan
scalar Network.dyn_peer[909] 	lookupHopsSig:mean 	-nan
scalar Network.dyn_peer[910] 	lookupTimeSig:mean 	-nan
scalar Network.dyn_peer[910] 	lookupStabilitySig:mean 	-nan
scalar Network.dyn_peer[910] 	lookupHopsSig:mean 	-nan
scalar Network.dyn_peer[911] 	lookupTimeSig:mean 	-nan
scalar Network.dyn_peer[911] 	lookupStabilitySig:mean 	-nan
scalar Network.dyn_peer[911] 	lookupHopsSig:mean 	-nan
scalar Network.dyn_peer[912] 	lookupTimeSig:mean 	-nan
scalar Network.dyn_peer[912] 	lookupStabilitySig:mean 	-nan
scalar Network.dyn_peer[912] 	lookupHopsSig:mean 	-nan
scalar Network.dyn_peer[913] 	lookupTimeSig:mean 	-nan
scalar Network.dyn_peer[913] 	lookupStabilitySig:mean 	-nan
scalar Network.dyn_peer[913] 	lookupHopsSig:mean 	-nan
scalar Network.dyn_peer[914] 	lookupTimeSig:mean 	-nan
scalar Network.dyn_peer[914] 	lookupStabilitySig:mean 	-nan
scalar Network.dyn_peer[914] 	lookupHopsSig:mean 	-nan
scalar Network.dyn_peer[915] 	lookupTimeSig:mean 	-nan
scalar Network.dyn_peer[915] 	lookupStabilitySig:mean 	-nan
scalar Network.dyn_peer[915] 	lookupHopsSig:mean 	-nan
scalar Network.dyn_peer[916] 	lookupTimeSig:mean 	-nan
scalar Network.dyn_peer[916] 	lookupStabilitySig:mean 	-nan
scalar Network.dyn_peer[916] 	lookupHopsSig:mean 	-nan
scalar Network.dyn_peer[917] 	lookupTimeSig:mean 	-nan
scalar Network.dyn_peer[917] 	lookupStabilitySig:mean 	-nan
scalar Network.dyn_peer[917] 	lookupHopsSig:mean 	-nan
scalar Network.dyn_peer[918] 	lookupTimeSig:mean 	-nan
scalar Network.dyn_peer[918] 	lookupStabilitySig:mean 	-nan
scalar Network.dyn_peer[918] 	lookupHopsSig:mean 	-nan
scalar Network.dyn_peer[919] 	lookupTimeSig:mean 	-nan
scalar Network.dyn_peer[919] 	lookupStabilitySig:mean 	-nan
scalar Network.dyn_peer[919] 	lookupHopsSig:mean 	-nan
scalar Network.dyn_peer[920] 	lookupTimeSig:mean 	-nan
scalar Network.dyn_peer[920] 	lookupStabilitySig:mean 	-nan
scalar Network.dyn_peer[920] 	lookupHopsSig:mean 	-nan
scalar Network.dyn_peer[921] 	lookupTimeSig:mean 	-nan
scalar Network.dyn_peer[921] 	lookupStabilitySig:mean 	-nan
scalar Network.dyn_peer[921] 	lookupHopsSig:mean 	-nan
scalar Network.dyn_peer[922] 	lookupTimeSig:mean 	-nan
scalar Network.dyn_peer[922] 	lookupStabilitySig:mean 	-nan
scalar Network.dyn_peer[922] 	lookupHopsSig:mean 	-nan
scalar Network.dyn_peer[923] 	lookupTimeSig:mean 	-nan
scalar Network.dyn_peer[923] 	lookupStabilitySig:mean 	-nan
scalar Network.dyn_peer[923] 	lookupHopsSig:mean 	-nan
scalar Network.dyn_peer[924] 	lookupTimeSig:mean 	-nan
scalar Network.dyn_peer[924] 	lookupStabilitySig:mean 	-nan
scalar Network.dyn_peer[924] 	lookupHopsSig:mean 	-nan
scalar Network.dyn_peer[925] 	lookupTimeSig:mean 	-nan
scalar Network.dyn_peer[925] 	lookupStabilitySig:mean 	-nan
scalar Network.dyn_peer[925] 	lookupHopsSig:mean 	-nan
scalar Network.dyn_peer[926] 	lookupTimeSig:mean 	-nan
scalar Network.dyn_peer[926] 	lookupStabilitySig:mean 	-nan
scalar Network.dyn_peer[926] 	lookupHopsSig:mean 	-nan
scalar Network.dyn_peer[927] 	lookupTimeSig:mean 	-nan
scalar Network.dyn_peer[927] 	lookupStabilitySig:mean 	-nan
scalar Network.dyn_peer[927] 	lookupHopsSig:mean 	-nan
scalar Network.dyn_peer[928] 	lookupTimeSig:mean 	-nan
scalar Network.dyn_peer[928] 	lookupStabilitySig:mean 	-nan
scalar Network.dyn_peer[928] 	lookupHopsSig:mean 	-nan
scalar Network.dyn_peer[929] 	lookupTimeSig:mean 	-nan
scalar Network.dyn_peer[929] 	lookupStabilitySig:mean 	-nan
scalar Network.dyn_peer[929] 	lookupHopsSig:mean 	-nan
scalar Network.dyn_peer[930] 	lookupTimeSig:mean 	-nan
scalar Network.dyn_peer[930] 	lookupStabilitySig:mean 	-nan
scalar Network.dyn_peer[930] 	lookupHopsSig:mean 	-nan
scalar Network.dyn_peer[931] 	lookupTimeSig:mean 	-nan
scalar Network.dyn_peer[931] 	lookupStabilitySig:mean 	-nan
scalar Network.dyn_peer[931] 	lookupHopsSig:mean 	-nan
scalar Network.dyn_peer[932] 	lookupTimeSig:mean 	-nan
scalar Network.dyn_peer[932] 	lookupStabilitySig:mean 	-nan
scalar Network.dyn_peer[932] 	lookupHopsSig:mean 	-nan
scalar Network.dyn_peer[933] 	lookupTimeSig:mean 	-nan
scalar Network.dyn_peer[933] 	lookupStabilitySig:mean 	-nan
scalar Network.dyn_peer[933] 	lookupHopsSig:mean 	-nan
scalar Network.dyn_peer[934] 	lookupTimeSig:mean 	-nan
scalar Network.dyn_peer[934] 	lookupStabilitySig:mean 	-nan
scalar Network.dyn_peer[934] 	lookupHopsSig:mean 	-nan
scalar Network.dyn_peer[935] 	lookupTimeSig:mean 	-nan
scalar Network.dyn_peer[935] 	lookupStabilitySig:mean 	-nan
scalar Network.dyn_peer[935] 	lookupHopsSig:mean 	-nan
scalar Network.dyn_peer[936] 	lookupTimeSig:mean 	-nan
scalar Network.dyn_peer[936] 	lookupStabilitySig:mean 	-nan
scalar Network.dyn_peer[936] 	lookupHopsSig:mean 	-nan
scalar Network.dyn_peer[937] 	lookupTimeSig:mean 	-nan
scalar Network.dyn_peer[937] 	lookupStabilitySig:mean 	-nan
scalar Network.dyn_peer[937] 	lookupHopsSig:mean 	-nan
scalar Network.dyn_peer[938] 	lookupTimeSig:mean 	-nan
scalar Network.dyn_peer[938] 	lookupStabilitySig:mean 	-nan
scalar Network.dyn_peer[938] 	lookupHopsSig:mean 	-nan
scalar Network.dyn_peer[939] 	lookupTimeSig:mean 	-nan
scalar Network.dyn_peer[939] 	lookupStabilitySig:mean 	-nan
scalar Network.dyn_peer[939] 	lookupHopsSig:mean 	-nan
scalar Network.dyn_peer[940] 	lookupTimeSig:mean 	-nan
scalar Network.dyn_peer[940] 	lookupStabilitySig:mean 	-nan
scalar Network.dyn_peer[940] 	lookupHopsSig:mean 	-nan
scalar Network.dyn_peer[941] 	lookupTimeSig:mean 	-nan
scalar Network.dyn_peer[941] 	lookupStabilitySig:mean 	-nan
scalar Network.dyn_peer[941] 	lookupHopsSig:mean 	-nan
scalar Network.dyn_peer[942] 	lookupTimeSig:mean 	-nan
scalar Network.dyn_peer[942] 	lookupStabilitySig:mean 	-nan
scalar Network.dyn_peer[942] 	lookupHopsSig:mean 	-nan
scalar Network.dyn_peer[943] 	lookupTimeSig:mean 	-nan
scalar Network.dyn_peer[943] 	lookupStabilitySig:mean 	-nan
scalar Network.dyn_peer[943] 	lookupHopsSig:mean 	-nan
scalar Network.dyn_peer[944] 	lookupTimeSig:mean 	-nan
scalar Network.dyn_peer[944] 	lookupStabilitySig:mean 	-nan
scalar Network.dyn_peer[944] 	lookupHopsSig:mean 	-nan
scalar Network.dyn_peer[945] 	lookupTimeSig:mean 	-nan
scalar Network.dyn_peer[945] 	lookupStabilitySig:mean 	-nan
scalar Network.dyn_peer[945] 	lookupHopsSig:mean 	-nan
scalar Network.dyn_peer[946] 	lookupTimeSig:mean 	-nan
scalar Network.dyn_peer[946] 	lookupStabilitySig:mean 	-nan
scalar Network.dyn_peer[946] 	lookupHopsSig:mean 	-nan
scalar Network.dyn_peer[947] 	lookupTimeSig:mean 	-nan
scalar Network.dyn_peer[947] 	lookupStabilitySig:mean 	-nan
scalar Network.dyn_peer[947] 	lookupHopsSig:mean 	-nan
scalar Network.dyn_peer[948] 	lookupTimeSig:mean 	-nan
scalar Network.dyn_peer[948] 	lookupStabilitySig:mean 	-nan
scalar Network.dyn_peer[948] 	lookupHopsSig:mean 	-nan
scalar Network.dyn_peer[949] 	lookupTimeSig:mean 	-nan
scalar Network.dyn_peer[949] 	lookupStabilitySig:mean 	-nan
scalar Network.dyn_peer[949] 	lookupHopsSig:mean 	-nan
scalar Network.dyn_peer[950] 	lookupTimeSig:mean 	-nan
scalar Network.dyn_peer[950] 	lookupStabilitySig:mean 	-nan
scalar Network.dyn_peer[950] 	lookupHopsSig:mean 	-nan
scalar Network.dyn_peer[951] 	lookupTimeSig:mean 	-nan
scalar Network.dyn_peer[951] 	lookupStabilitySig:mean 	-nan
scalar Network.dyn_peer[951] 	lookupHopsSig:mean 	-nan
scalar Network.dyn_peer[952] 	lookupTimeSig:mean 	-nan
scalar Network.dyn_peer[952] 	lookupStabilitySig:mean 	-nan
scalar Network.dyn_peer[952] 	lookupHopsSig:mean 	-nan
scalar Network.dyn_peer[953] 	lookupTimeSig:mean 	-nan
scalar Network.dyn_peer[953] 	lookupStabilitySig:mean 	-nan
scalar Network.dyn_peer[953] 	lookupHopsSig:mean 	-nan
scalar Network.dyn_peer[954] 	lookupTimeSig:mean 	-nan
scalar Network.dyn_peer[954] 	lookupStabilitySig:mean 	-nan
scalar Network.dyn_peer[954] 	lookupHopsSig:mean 	-nan
scalar Network.dyn_peer[955] 	lookupTimeSig:mean 	-nan
scalar Network.dyn_peer[955] 	lookupStabilitySig:mean 	-nan
scalar Network.dyn_peer[955] 	lookupHopsSig:mean 	-nan
scalar Network.dyn_peer[956] 	lookupTimeSig:mean 	-nan
scalar Network.dyn_peer[956] 	lookupStabilitySig:mean 	-nan
scalar Network.dyn_peer[956] 	lookupHopsSig:mean 	-nan
scalar Network.dyn_peer[957] 	lookupTimeSig:mean 	-nan
scalar Network.dyn_peer[957] 	lookupStabilitySig:mean 	-nan
scalar Network.dyn_peer[957] 	lookupHopsSig:mean 	-nan
scalar Network.dyn_peer[958] 	lookupTimeSig:mean 	-nan
scalar Network.dyn_peer[958] 	lookupStabilitySig:mean 	-nan
scalar Network.dyn_peer[958] 	lookupHopsSig:mean 	-nan
scalar Network.dyn_peer[959] 	lookupTimeSig:mean 	-nan
scalar Network.dyn_peer[959] 	lookupStabilitySig:mean 	-nan
scalar Network.dyn_peer[959] 	lookupHopsSig:mean 	-nan
scalar Network.dyn_peer[960] 	lookupTimeSig:mean 	-nan
scalar Network.dyn_peer[960] 	lookupStabilitySig:mean 	-nan
scalar Network.dyn_peer[960] 	lookupHopsSig:mean 	-nan
scalar Network.dyn_peer[961] 	lookupTimeSig:mean 	-nan
scalar Network.dyn_peer[961] 	lookupStabilitySig:mean 	-nan
scalar Network.dyn_peer[961] 	lookupHopsSig:mean 	-nan
scalar Network.dyn_peer[962] 	lookupTimeSig:mean 	-nan
scalar Network.dyn_peer[962] 	lookupStabilitySig:mean 	-nan
scalar Network.dyn_peer[962] 	lookupHopsSig:mean 	-nan
scalar Network.dyn_peer[963] 	lookupTimeSig:mean 	-nan
scalar Network.dyn_peer[963] 	lookupStabilitySig:mean 	-nan
scalar Network.dyn_peer[963] 	lookupHopsSig:mean 	-nan
scalar Network.dyn_peer[964] 	lookupTimeSig:mean 	-nan
scalar Network.dyn_peer[964] 	lookupStabilitySig:mean 	-nan
scalar Network.dyn_peer[964] 	lookupHopsSig:mean 	-nan
scalar Network.dyn_peer[965] 	lookupTimeSig:mean 	-nan
scalar Network.dyn_peer[965] 	lookupStabilitySig:mean 	-nan
scalar Network.dyn_peer[965] 	lookupHopsSig:mean 	-nan
scalar Network.dyn_peer[966] 	lookupTimeSig:mean 	-nan
scalar Network.dyn_peer[966] 	lookupStabilitySig:mean 	-nan
scalar Network.dyn_peer[966] 	lookupHopsSig:mean 	-nan
scalar Network.dyn_peer[967] 	lookupTimeSig:mean 	-nan
scalar Network.dyn_peer[967] 	lookupStabilitySig:mean 	-nan
scalar Network.dyn_peer[967] 	lookupHopsSig:mean 	-nan
scalar Network.dyn_peer[968] 	lookupTimeSig:mean 	-nan
scalar Network.dyn_peer[968] 	lookupStabilitySig:mean 	-nan
scalar Network.dyn_peer[968] 	lookupHopsSig:mean 	-nan
scalar Network.dyn_peer[969] 	lookupTimeSig:mean 	-nan
scalar Network.dyn_peer[969] 	lookupStabilitySig:mean 	-nan
scalar Network.dyn_peer[969] 	lookupHopsSig:mean 	-nan
scalar Network.dyn_peer[970] 	lookupTimeSig:mean 	-nan
scalar Network.dyn_peer[970] 	lookupStabilitySig:mean 	-nan
scalar Network.dyn_peer[970] 	lookupHopsSig:mean 	-nan
scalar Network.dyn_peer[971] 	lookupTimeSig:mean 	-nan
scalar Network.dyn_peer[971] 	lookupStabilitySig:mean 	-nan
scalar Network.dyn_peer[971] 	lookupHopsSig:mean 	-nan
scalar Network.dyn_peer[972] 	lookupTimeSig:mean 	-nan
scalar Network.dyn_peer[972] 	lookupStabilitySig:mean 	-nan
scalar Network.dyn_peer[972] 	lookupHopsSig:mean 	-nan
scalar Network.dyn_peer[973] 	lookupTimeSig:mean 	-nan
scalar Network.dyn_peer[973] 	lookupStabilitySig:mean 	-nan
scalar Network.dyn_peer[973] 	lookupHopsSig:mean 	-nan
scalar Network.dyn_peer[974] 	lookupTimeSig:mean 	-nan
scalar Network.dyn_peer[974] 	lookupStabilitySig:mean 	-nan
scalar Network.dyn_peer[974] 	lookupHopsSig:mean 	-nan
scalar Network.dyn_peer[975] 	lookupTimeSig:mean 	-nan
scalar Network.dyn_peer[975] 	lookupStabilitySig:mean 	-nan
scalar Network.dyn_peer[975] 	lookupHopsSig:mean 	-nan
scalar Network.dyn_peer[976] 	lookupTimeSig:mean 	-nan
scalar Network.dyn_peer[976] 	lookupStabilitySig:mean 	-nan
scalar Network.dyn_peer[976] 	lookupHopsSig:mean 	-nan
scalar Network.dyn_peer[977] 	lookupTimeSig:mean 	-nan
scalar Network.dyn_peer[977] 	lookupStabilitySig:mean 	-nan
scalar Network.dyn_peer[977] 	lookupHopsSig:mean 	-nan
scalar Network.dyn_peer[978] 	lookupTimeSig:mean 	-nan
scalar Network.dyn_peer[978] 	lookupStabilitySig:mean 	-nan
scalar Network.dyn_peer[978] 	lookupHopsSig:mean 	-nan
scalar Network.dyn_peer[979] 	lookupTimeSig:mean 	-nan
scalar Network.dyn_peer[979] 	lookupStabilitySig:mean 	-nan
scalar Network.dyn_peer[979] 	lookupHopsSig:mean 	-nan
scalar Network.dyn_peer[980] 	lookupTimeSig:mean 	-nan
scalar Network.dyn_peer[980] 	lookupStabilitySig:mean 	-nan
scalar Network.dyn_peer[980] 	lookupHopsSig:mean 	-nan
scalar Network.dyn_peer[981] 	lookupTimeSig:mean 	-nan
scalar Network.dyn_peer[981] 	lookupStabilitySig:mean 	-nan
scalar Network.dyn_peer[981] 	lookupHopsSig:mean 	-nan
scalar Network.dyn_peer[982] 	lookupTimeSig:mean 	-nan
scalar Network.dyn_peer[982] 	lookupStabilitySig:mean 	-nan
scalar Network.dyn_peer[982] 	lookupHopsSig:mean 	-nan
scalar Network.dyn_peer[983] 	lookupTimeSig:mean 	-nan
scalar Network.dyn_peer[983] 	lookupStabilitySig:mean 	-nan
scalar Network.dyn_peer[983] 	lookupHopsSig:mean 	-nan
scalar Network.dyn_peer[984] 	lookupTimeSig:mean 	-nan
scalar Network.dyn_peer[984] 	lookupStabilitySig:mean 	-nan
scalar Network.dyn_peer[984] 	lookupHopsSig:mean 	-nan
scalar Network.dyn_peer[985] 	lookupTimeSig:mean 	-nan
scalar Network.dyn_peer[985] 	lookupStabilitySig:mean 	-nan
scalar Network.dyn_peer[985] 	lookupHopsSig:mean 	-nan
scalar Network.dyn_peer[986] 	lookupTimeSig:mean 	-nan
scalar Network.dyn_peer[986] 	lookupStabilitySig:mean 	-nan
scalar Network.dyn_peer[986] 	lookupHopsSig:mean 	-nan
scalar Network.dyn_peer[987] 	lookupTimeSig:mean 	-nan
scalar Network.dyn_peer[987] 	lookupStabilitySig:mean 	-nan
scalar Network.dyn_peer[987] 	lookupHopsSig:mean 	-nan
scalar Network.dyn_peer[988] 	lookupTimeSig:mean 	-nan
scalar Network.dyn_peer[988] 	lookupStabilitySig:mean 	-nan
scalar Network.dyn_peer[988] 	lookupHopsSig:mean 	-nan
scalar Network.dyn_peer[989] 	lookupTimeSig:mean 	-nan
scalar Network.dyn_peer[989] 	lookupStabilitySig:mean 	-nan
scalar Network.dyn_peer[989] 	lookupHopsSig:mean 	-nan
scalar Network.dyn_peer[990] 	lookupTimeSig:mean 	-nan
scalar Network.dyn_peer[990] 	lookupStabilitySig:mean 	-nan
scalar Network.dyn_peer[990] 	lookupHopsSig:mean 	-nan
scalar Network.dyn_peer[991] 	lookupTimeSig:mean 	-nan
scalar Network.dyn_peer[991] 	lookupStabilitySig:mean 	-nan
scalar Network.dyn_peer[991] 	lookupHopsSig:mean 	-nan
scalar Network.dyn_peer[992] 	lookupTimeSig:mean 	-nan
scalar Network.dyn_peer[992] 	lookupStabilitySig:mean 	-nan
scalar Network.dyn_peer[992] 	lookupHopsSig:mean 	-nan
scalar Network.dyn_peer[993] 	lookupTimeSig:mean 	-nan
scalar Network.dyn_peer[993] 	lookupStabilitySig:mean 	-nan
scalar Network.dyn_peer[993] 	lookupHopsSig:mean 	-nan
scalar Network.dyn_peer[994] 	lookupTimeSig:mean 	-nan
scalar Network.dyn_peer[994] 	lookupStabilitySig:mean 	-nan
scalar Network.dyn_peer[994] 	lookupHopsSig:mean 	-nan
scalar Network.dyn_peer[995] 	lookupTimeSig:mean 	-nan
scalar Network.dyn_peer[995] 	lookupStabilitySig:mean 	-nan
scalar Network.dyn_peer[995] 	lookupHopsSig:mean 	-nan
scalar Network.dyn_peer[996] 	lookupTimeSig:mean 	-nan
scalar Network.dyn_peer[996] 	lookupStabilitySig:mean 	-nan
scalar Network.dyn_peer[996] 	lookupHopsSig:mean 	-nan
scalar Network.dyn_peer[997] 	lookupTimeSig:mean 	-nan
scalar Network.dyn_peer[997] 	lookupStabilitySig:mean 	-nan
scalar Network.dyn_peer[997] 	lookupHopsSig:mean 	-nan
scalar Network.dyn_peer[998] 	lookupTimeSig:mean 	-nan
scalar Network.dyn_peer[998] 	lookupStabilitySig:mean 	-nan
scalar Network.dyn_peer[998] 	lookupHopsSig:mean 	-nan
scalar Network.dyn_peer[999] 	lookupTimeSig:mean 	-nan
scalar Network.dyn_peer[999] 	lookupStabilitySig:mean 	-nan
scalar Network.dyn_peer[999] 	lookupHopsSig:mean 	-nan
scalar Network.churner 	inGoingSizeSig:mean 	19.024390243902
