version 2
run Stability2-328-20130526-00:55:41-26640
attr configname Stability2
attr datetime 20130526-00:55:41
attr experiment Stability2
attr inifile omnetpp.ini
attr iterationvars $0=1000
attr iterationvars2 "$0=1000, $repetition=28"
attr measurement $0=1000
attr network Network
attr processid 26640
attr repetition 28
attr replication #28
attr resultdir results
attr runnumber 328
attr seedset 328

scalar Network.dyn_peer[0] 	lookupTimeSig:mean 	1.3125
scalar Network.dyn_peer[0] 	lookupStabilitySig:mean 	0.74523754126858
scalar Network.dyn_peer[0] 	lookupHopsSig:mean 	12.25
scalar Network.dyn_peer[1] 	lookupTimeSig:mean 	1.8888888888889
scalar Network.dyn_peer[1] 	lookupStabilitySig:mean 	0.70270694647398
scalar Network.dyn_peer[1] 	lookupHopsSig:mean 	18
scalar Network.dyn_peer[2] 	lookupTimeSig:mean 	1.0692307692308
scalar Network.dyn_peer[2] 	lookupStabilitySig:mean 	0.80224973335862
scalar Network.dyn_peer[2] 	lookupHopsSig:mean 	9.7692307692308
scalar Network.dyn_peer[3] 	lookupTimeSig:mean 	3.2
scalar Network.dyn_peer[3] 	lookupStabilitySig:mean 	0.32424243787924
scalar Network.dyn_peer[3] 	lookupHopsSig:mean 	31.333333333333
scalar Network.dyn_peer[4] 	lookupTimeSig:mean 	2.625
scalar Network.dyn_peer[4] 	lookupStabilitySig:mean 	0.58027852675878
scalar Network.dyn_peer[4] 	lookupHopsSig:mean 	25.375
scalar Network.dyn_peer[5] 	lookupTimeSig:mean 	2.6
scalar Network.dyn_peer[5] 	lookupStabilitySig:mean 	0.44524938240647
scalar Network.dyn_peer[5] 	lookupHopsSig:mean 	25.25
scalar Network.dyn_peer[6] 	lookupTimeSig:mean 	2.54
scalar Network.dyn_peer[6] 	lookupStabilitySig:mean 	0.4739764470607
scalar Network.dyn_peer[6] 	lookupHopsSig:mean 	24.6
scalar Network.dyn_peer[7] 	lookupTimeSig:mean 	5.05
scalar Network.dyn_peer[7] 	lookupStabilitySig:mean 	-0.15457759052515
scalar Network.dyn_peer[7] 	lookupHopsSig:mean 	50
scalar Network.dyn_peer[8] 	lookupTimeSig:mean 	1.78
scalar Network.dyn_peer[8] 	lookupStabilitySig:mean 	0.54566370397806
scalar Network.dyn_peer[8] 	lookupHopsSig:mean 	17
scalar Network.dyn_peer[9] 	lookupTimeSig:mean 	1.5
scalar Network.dyn_peer[9] 	lookupStabilitySig:mean 	0.48258148288975
scalar Network.dyn_peer[9] 	lookupHopsSig:mean 	14.166666666667
scalar Network.dyn_peer[10] 	lookupTimeSig:mean 	1.8142857142857
scalar Network.dyn_peer[10] 	lookupStabilitySig:mean 	0.64179582521319
scalar Network.dyn_peer[10] 	lookupHopsSig:mean 	17.285714285714
scalar Network.dyn_peer[11] 	lookupTimeSig:mean 	1.95
scalar Network.dyn_peer[11] 	lookupStabilitySig:mean 	0.39680164679885
scalar Network.dyn_peer[11] 	lookupHopsSig:mean 	18.75
scalar Network.dyn_peer[12] 	lookupTimeSig:mean 	1.85
scalar Network.dyn_peer[12] 	lookupStabilitySig:mean 	0.40858578402549
scalar Network.dyn_peer[12] 	lookupHopsSig:mean 	17.75
scalar Network.dyn_peer[13] 	lookupTimeSig:mean 	2.1153846153846
scalar Network.dyn_peer[13] 	lookupStabilitySig:mean 	0.74282102942323
scalar Network.dyn_peer[13] 	lookupHopsSig:mean 	20.230769230769
scalar Network.dyn_peer[14] 	lookupTimeSig:mean 	4.95
scalar Network.dyn_peer[14] 	lookupStabilitySig:mean 	0.77659033238888
scalar Network.dyn_peer[14] 	lookupHopsSig:mean 	49
scalar Network.dyn_peer[15] 	lookupTimeSig:mean 	0.96
scalar Network.dyn_peer[15] 	lookupStabilitySig:mean 	0.37781815938652
scalar Network.dyn_peer[15] 	lookupHopsSig:mean 	8.8
scalar Network.dyn_peer[16] 	lookupTimeSig:mean 	2.36
scalar Network.dyn_peer[16] 	lookupStabilitySig:mean 	0.51611457392573
scalar Network.dyn_peer[16] 	lookupHopsSig:mean 	22.8
scalar Network.dyn_peer[17] 	lookupTimeSig:mean 	2.4333333333333
scalar Network.dyn_peer[17] 	lookupStabilitySig:mean 	0.62321624780695
scalar Network.dyn_peer[17] 	lookupHopsSig:mean 	23.5
scalar Network.dyn_peer[18] 	lookupTimeSig:mean 	1.15
scalar Network.dyn_peer[18] 	lookupStabilitySig:mean 	0.29298245161772
scalar Network.dyn_peer[18] 	lookupHopsSig:mean 	10.75
scalar Network.dyn_peer[19] 	lookupTimeSig:mean 	1.7
scalar Network.dyn_peer[19] 	lookupStabilitySig:mean 	0.47152155358344
scalar Network.dyn_peer[19] 	lookupHopsSig:mean 	16.25
scalar Network.dyn_peer[20] 	lookupTimeSig:mean 	1.3142857142857
scalar Network.dyn_peer[20] 	lookupStabilitySig:mean 	0.74748001566955
scalar Network.dyn_peer[20] 	lookupHopsSig:mean 	12.285714285714
scalar Network.dyn_peer[21] 	lookupTimeSig:mean 	3.28
scalar Network.dyn_peer[21] 	lookupStabilitySig:mean 	0.54737574756145
scalar Network.dyn_peer[21] 	lookupHopsSig:mean 	32
scalar Network.dyn_peer[22] 	lookupTimeSig:mean 	2.0333333333333
scalar Network.dyn_peer[22] 	lookupStabilitySig:mean 	0.47645686070124
scalar Network.dyn_peer[22] 	lookupHopsSig:mean 	19.666666666667
scalar Network.dyn_peer[23] 	lookupTimeSig:mean 	1.925
scalar Network.dyn_peer[23] 	lookupStabilitySig:mean 	0.61348375608213
scalar Network.dyn_peer[23] 	lookupHopsSig:mean 	18.375
scalar Network.dyn_peer[24] 	lookupTimeSig:mean 	1.5428571428571
scalar Network.dyn_peer[24] 	lookupStabilitySig:mean 	0.53613775596023
scalar Network.dyn_peer[24] 	lookupHopsSig:mean 	14.571428571429
scalar Network.dyn_peer[25] 	lookupTimeSig:mean 	2.28
scalar Network.dyn_peer[25] 	lookupStabilitySig:mean 	0.7709977298975
scalar Network.dyn_peer[25] 	lookupHopsSig:mean 	22
scalar Network.dyn_peer[26] 	lookupTimeSig:mean 	1.65
scalar Network.dyn_peer[26] 	lookupStabilitySig:mean 	0.63198678443829
scalar Network.dyn_peer[26] 	lookupHopsSig:mean 	15.666666666667
scalar Network.dyn_peer[27] 	lookupTimeSig:mean 	3.72
scalar Network.dyn_peer[27] 	lookupStabilitySig:mean 	0.6530617274344
scalar Network.dyn_peer[27] 	lookupHopsSig:mean 	36.4
scalar Network.dyn_peer[28] 	lookupTimeSig:mean 	0.9625
scalar Network.dyn_peer[28] 	lookupStabilitySig:mean 	0.62230629444821
scalar Network.dyn_peer[28] 	lookupHopsSig:mean 	8.75
scalar Network.dyn_peer[29] 	lookupTimeSig:mean 	1.9
scalar Network.dyn_peer[29] 	lookupStabilitySig:mean 	0.50125174876302
scalar Network.dyn_peer[29] 	lookupHopsSig:mean 	18.25
scalar Network.dyn_peer[30] 	lookupTimeSig:mean 	1.76
scalar Network.dyn_peer[30] 	lookupStabilitySig:mean 	0.45937437713146
scalar Network.dyn_peer[30] 	lookupHopsSig:mean 	16.8
scalar Network.dyn_peer[31] 	lookupTimeSig:mean 	1.88
scalar Network.dyn_peer[31] 	lookupStabilitySig:mean 	0.37009375393391
scalar Network.dyn_peer[31] 	lookupHopsSig:mean 	18
scalar Network.dyn_peer[32] 	lookupTimeSig:mean 	2.0583333333333
scalar Network.dyn_peer[32] 	lookupStabilitySig:mean 	0.84857924949999
scalar Network.dyn_peer[32] 	lookupHopsSig:mean 	19.666666666667
scalar Network.dyn_peer[33] 	lookupTimeSig:mean 	1.5875
scalar Network.dyn_peer[33] 	lookupStabilitySig:mean 	0.58166896807961
scalar Network.dyn_peer[33] 	lookupHopsSig:mean 	15
scalar Network.dyn_peer[34] 	lookupTimeSig:mean 	2.125
scalar Network.dyn_peer[34] 	lookupStabilitySig:mean 	0.53927813656628
scalar Network.dyn_peer[34] 	lookupHopsSig:mean 	20.5
scalar Network.dyn_peer[35] 	lookupTimeSig:mean 	1.375
scalar Network.dyn_peer[35] 	lookupStabilitySig:mean 	0.27069806214422
scalar Network.dyn_peer[35] 	lookupHopsSig:mean 	13
scalar Network.dyn_peer[36] 	lookupTimeSig:mean 	1.675
scalar Network.dyn_peer[36] 	lookupStabilitySig:mean 	0.72985155321658
scalar Network.dyn_peer[36] 	lookupHopsSig:mean 	16
scalar Network.dyn_peer[37] 	lookupTimeSig:mean 	2.2428571428571
scalar Network.dyn_peer[37] 	lookupStabilitySig:mean 	0.56162857463849
scalar Network.dyn_peer[37] 	lookupHopsSig:mean 	21.571428571429
scalar Network.dyn_peer[38] 	lookupTimeSig:mean 	2.2
scalar Network.dyn_peer[38] 	lookupStabilitySig:mean 	0.7715057387948
scalar Network.dyn_peer[38] 	lookupHopsSig:mean 	21.2
scalar Network.dyn_peer[39] 	lookupTimeSig:mean 	3.08
scalar Network.dyn_peer[39] 	lookupStabilitySig:mean 	0.30116385743022
scalar Network.dyn_peer[39] 	lookupHopsSig:mean 	30
scalar Network.dyn_peer[40] 	lookupTimeSig:mean 	1.6
scalar Network.dyn_peer[40] 	lookupStabilitySig:mean 	0.55326182544231
scalar Network.dyn_peer[40] 	lookupHopsSig:mean 	15.2
scalar Network.dyn_peer[41] 	lookupTimeSig:mean 	1.9153846153846
scalar Network.dyn_peer[41] 	lookupStabilitySig:mean 	0.82249179849616
scalar Network.dyn_peer[41] 	lookupHopsSig:mean 	18.230769230769
scalar Network.dyn_peer[42] 	lookupTimeSig:mean 	2.6
scalar Network.dyn_peer[42] 	lookupStabilitySig:mean 	0.50198492461017
scalar Network.dyn_peer[42] 	lookupHopsSig:mean 	25.142857142857
scalar Network.dyn_peer[43] 	lookupTimeSig:mean 	2.5
scalar Network.dyn_peer[43] 	lookupStabilitySig:mean 	0.53764086083642
scalar Network.dyn_peer[43] 	lookupHopsSig:mean 	24.142857142857
scalar Network.dyn_peer[44] 	lookupTimeSig:mean 	2.15
scalar Network.dyn_peer[44] 	lookupStabilitySig:mean 	0.6014378555119
scalar Network.dyn_peer[44] 	lookupHopsSig:mean 	20.666666666667
scalar Network.dyn_peer[45] 	lookupTimeSig:mean 	1.1
scalar Network.dyn_peer[45] 	lookupStabilitySig:mean 	0.2792748734355
scalar Network.dyn_peer[45] 	lookupHopsSig:mean 	10.25
scalar Network.dyn_peer[46] 	lookupTimeSig:mean 	2.2285714285714
scalar Network.dyn_peer[46] 	lookupStabilitySig:mean 	0.76683210634759
scalar Network.dyn_peer[46] 	lookupHopsSig:mean 	21.428571428571
scalar Network.dyn_peer[47] 	lookupTimeSig:mean 	1.7166666666667
scalar Network.dyn_peer[47] 	lookupStabilitySig:mean 	0.45045396933953
scalar Network.dyn_peer[47] 	lookupHopsSig:mean 	16.333333333333
scalar Network.dyn_peer[48] 	lookupTimeSig:mean 	1.3285714285714
scalar Network.dyn_peer[48] 	lookupStabilitySig:mean 	0.70065789377051
scalar Network.dyn_peer[48] 	lookupHopsSig:mean 	12.428571428571
scalar Network.dyn_peer[49] 	lookupTimeSig:mean 	4.4
scalar Network.dyn_peer[49] 	lookupStabilitySig:mean 	0.67351190745831
scalar Network.dyn_peer[49] 	lookupHopsSig:mean 	43.5
scalar Network.dyn_peer[50] 	lookupTimeSig:mean 	1.2166666666667
scalar Network.dyn_peer[50] 	lookupStabilitySig:mean 	0.63710320057968
scalar Network.dyn_peer[50] 	lookupHopsSig:mean 	11.333333333333
scalar Network.dyn_peer[51] 	lookupTimeSig:mean 	2.9
scalar Network.dyn_peer[51] 	lookupStabilitySig:mean 	0.37042902968824
scalar Network.dyn_peer[51] 	lookupHopsSig:mean 	28.25
scalar Network.dyn_peer[52] 	lookupTimeSig:mean 	1.92
scalar Network.dyn_peer[52] 	lookupStabilitySig:mean 	0.82519076848403
scalar Network.dyn_peer[52] 	lookupHopsSig:mean 	18.3
scalar Network.dyn_peer[53] 	lookupTimeSig:mean 	2.9
scalar Network.dyn_peer[53] 	lookupStabilitySig:mean 	-0.37716540694237
scalar Network.dyn_peer[53] 	lookupHopsSig:mean 	28.5
scalar Network.dyn_peer[54] 	lookupTimeSig:mean 	3.075
scalar Network.dyn_peer[54] 	lookupStabilitySig:mean 	0.40609931759536
scalar Network.dyn_peer[54] 	lookupHopsSig:mean 	30
scalar Network.dyn_peer[55] 	lookupTimeSig:mean 	2.1285714285714
scalar Network.dyn_peer[55] 	lookupStabilitySig:mean 	0.54304495640099
scalar Network.dyn_peer[55] 	lookupHopsSig:mean 	20.428571428571
scalar Network.dyn_peer[56] 	lookupTimeSig:mean 	2.35
scalar Network.dyn_peer[56] 	lookupStabilitySig:mean 	0.72385737206787
scalar Network.dyn_peer[56] 	lookupHopsSig:mean 	22.75
scalar Network.dyn_peer[57] 	lookupTimeSig:mean 	1.8615384615385
scalar Network.dyn_peer[57] 	lookupStabilitySig:mean 	0.79560216738341
scalar Network.dyn_peer[57] 	lookupHopsSig:mean 	17.692307692308
scalar Network.dyn_peer[58] 	lookupTimeSig:mean 	3.02
scalar Network.dyn_peer[58] 	lookupStabilitySig:mean 	0.61462657228112
scalar Network.dyn_peer[58] 	lookupHopsSig:mean 	29.4
scalar Network.dyn_peer[59] 	lookupTimeSig:mean 	2.7
scalar Network.dyn_peer[59] 	lookupStabilitySig:mean 	0.39690567553043
scalar Network.dyn_peer[59] 	lookupHopsSig:mean 	26.25
scalar Network.dyn_peer[60] 	lookupTimeSig:mean 	2.4333333333333
scalar Network.dyn_peer[60] 	lookupStabilitySig:mean 	0.51794182074567
scalar Network.dyn_peer[60] 	lookupHopsSig:mean 	23.5
scalar Network.dyn_peer[61] 	lookupTimeSig:mean 	1.0916666666667
scalar Network.dyn_peer[61] 	lookupStabilitySig:mean 	0.80785792972893
scalar Network.dyn_peer[61] 	lookupHopsSig:mean 	10
scalar Network.dyn_peer[62] 	lookupTimeSig:mean 	1.78
scalar Network.dyn_peer[62] 	lookupStabilitySig:mean 	0.50438404455781
scalar Network.dyn_peer[62] 	lookupHopsSig:mean 	17
scalar Network.dyn_peer[63] 	lookupTimeSig:mean 	2.0714285714286
scalar Network.dyn_peer[63] 	lookupStabilitySig:mean 	0.62047720727112
scalar Network.dyn_peer[63] 	lookupHopsSig:mean 	19.857142857143
scalar Network.dyn_peer[64] 	lookupTimeSig:mean 	1.9
scalar Network.dyn_peer[64] 	lookupStabilitySig:mean 	0.68514252696186
scalar Network.dyn_peer[64] 	lookupHopsSig:mean 	18.1
scalar Network.dyn_peer[65] 	lookupTimeSig:mean 	1.675
scalar Network.dyn_peer[65] 	lookupStabilitySig:mean 	0.58681208733469
scalar Network.dyn_peer[65] 	lookupHopsSig:mean 	16
scalar Network.dyn_peer[66] 	lookupTimeSig:mean 	1.4888888888889
scalar Network.dyn_peer[66] 	lookupStabilitySig:mean 	0.60509107117024
scalar Network.dyn_peer[66] 	lookupHopsSig:mean 	14
scalar Network.dyn_peer[67] 	lookupTimeSig:mean 	5.8
scalar Network.dyn_peer[67] 	lookupStabilitySig:mean 	-0.50120238214731
scalar Network.dyn_peer[67] 	lookupHopsSig:mean 	57.5
scalar Network.dyn_peer[68] 	lookupTimeSig:mean 	1.82
scalar Network.dyn_peer[68] 	lookupStabilitySig:mean 	0.44207738786936
scalar Network.dyn_peer[68] 	lookupHopsSig:mean 	17.4
scalar Network.dyn_peer[69] 	lookupTimeSig:mean 	2.2714285714286
scalar Network.dyn_peer[69] 	lookupStabilitySig:mean 	0.58965867611447
scalar Network.dyn_peer[69] 	lookupHopsSig:mean 	21.857142857143
scalar Network.dyn_peer[70] 	lookupTimeSig:mean 	1.6
scalar Network.dyn_peer[70] 	lookupStabilitySig:mean 	0.84413866805179
scalar Network.dyn_peer[70] 	lookupHopsSig:mean 	15.142857142857
scalar Network.dyn_peer[71] 	lookupTimeSig:mean 	1.7166666666667
scalar Network.dyn_peer[71] 	lookupStabilitySig:mean 	0.56876298955952
scalar Network.dyn_peer[71] 	lookupHopsSig:mean 	16.333333333333
scalar Network.dyn_peer[72] 	lookupTimeSig:mean 	1.3705882352941
scalar Network.dyn_peer[72] 	lookupStabilitySig:mean 	0.88896834558588
scalar Network.dyn_peer[72] 	lookupHopsSig:mean 	12.764705882353
scalar Network.dyn_peer[73] 	lookupTimeSig:mean 	1.625
scalar Network.dyn_peer[73] 	lookupStabilitySig:mean 	0.68820933881216
scalar Network.dyn_peer[73] 	lookupHopsSig:mean 	15.375
scalar Network.dyn_peer[74] 	lookupTimeSig:mean 	2.95
scalar Network.dyn_peer[74] 	lookupStabilitySig:mean 	0.46356934437063
scalar Network.dyn_peer[74] 	lookupHopsSig:mean 	28.75
scalar Network.dyn_peer[75] 	lookupTimeSig:mean 	1.4333333333333
scalar Network.dyn_peer[75] 	lookupStabilitySig:mean 	0.56181176006794
scalar Network.dyn_peer[75] 	lookupHopsSig:mean 	13.5
scalar Network.dyn_peer[76] 	lookupTimeSig:mean 	1.4666666666667
scalar Network.dyn_peer[76] 	lookupStabilitySig:mean 	0.61212547651182
scalar Network.dyn_peer[76] 	lookupHopsSig:mean 	13.833333333333
scalar Network.dyn_peer[77] 	lookupTimeSig:mean 	1.1666666666667
scalar Network.dyn_peer[77] 	lookupStabilitySig:mean 	0.68582768552005
scalar Network.dyn_peer[77] 	lookupHopsSig:mean 	10.777777777778
scalar Network.dyn_peer[78] 	lookupTimeSig:mean 	2.3666666666667
scalar Network.dyn_peer[78] 	lookupStabilitySig:mean 	0.1144757270813
scalar Network.dyn_peer[78] 	lookupHopsSig:mean 	23
scalar Network.dyn_peer[79] 	lookupTimeSig:mean 	1.8
scalar Network.dyn_peer[79] 	lookupStabilitySig:mean 	0.83461619762238
scalar Network.dyn_peer[79] 	lookupHopsSig:mean 	17.125
scalar Network.dyn_peer[80] 	lookupTimeSig:mean 	1.64
scalar Network.dyn_peer[80] 	lookupStabilitySig:mean 	0.63717637900263
scalar Network.dyn_peer[80] 	lookupHopsSig:mean 	15.5
scalar Network.dyn_peer[81] 	lookupTimeSig:mean 	1.44
scalar Network.dyn_peer[81] 	lookupStabilitySig:mean 	0.42939943894744
scalar Network.dyn_peer[81] 	lookupHopsSig:mean 	13.6
scalar Network.dyn_peer[82] 	lookupTimeSig:mean 	1.95
scalar Network.dyn_peer[82] 	lookupStabilitySig:mean 	0.6795527972281
scalar Network.dyn_peer[82] 	lookupHopsSig:mean 	18.625
scalar Network.dyn_peer[83] 	lookupTimeSig:mean 	1
scalar Network.dyn_peer[83] 	lookupStabilitySig:mean 	0.078436851501465
scalar Network.dyn_peer[83] 	lookupHopsSig:mean 	9.3333333333333
scalar Network.dyn_peer[84] 	lookupTimeSig:mean 	1.8
scalar Network.dyn_peer[84] 	lookupStabilitySig:mean 	0.42150504607707
scalar Network.dyn_peer[84] 	lookupHopsSig:mean 	17.25
scalar Network.dyn_peer[85] 	lookupTimeSig:mean 	2.9666666666667
scalar Network.dyn_peer[85] 	lookupStabilitySig:mean 	0.40328841159741
scalar Network.dyn_peer[85] 	lookupHopsSig:mean 	29
scalar Network.dyn_peer[86] 	lookupTimeSig:mean 	1.82
scalar Network.dyn_peer[86] 	lookupStabilitySig:mean 	0.49520707130432
scalar Network.dyn_peer[86] 	lookupHopsSig:mean 	17.4
scalar Network.dyn_peer[87] 	lookupTimeSig:mean 	2.46
scalar Network.dyn_peer[87] 	lookupStabilitySig:mean 	0.59344843253493
scalar Network.dyn_peer[87] 	lookupHopsSig:mean 	23.8
scalar Network.dyn_peer[88] 	lookupTimeSig:mean 	1.3545454545455
scalar Network.dyn_peer[88] 	lookupStabilitySig:mean 	0.84151279460639
scalar Network.dyn_peer[88] 	lookupHopsSig:mean 	12.636363636364
scalar Network.dyn_peer[89] 	lookupTimeSig:mean 	1.45
scalar Network.dyn_peer[89] 	lookupStabilitySig:mean 	0.88807690648052
scalar Network.dyn_peer[89] 	lookupHopsSig:mean 	13.583333333333
scalar Network.dyn_peer[90] 	lookupTimeSig:mean 	1.4777777777778
scalar Network.dyn_peer[90] 	lookupStabilitySig:mean 	0.70643597199685
scalar Network.dyn_peer[90] 	lookupHopsSig:mean 	13.888888888889
scalar Network.dyn_peer[91] 	lookupTimeSig:mean 	2.64
scalar Network.dyn_peer[91] 	lookupStabilitySig:mean 	0.54629326462746
scalar Network.dyn_peer[91] 	lookupHopsSig:mean 	25.6
scalar Network.dyn_peer[92] 	lookupTimeSig:mean 	2.07
scalar Network.dyn_peer[92] 	lookupStabilitySig:mean 	0.72213914450258
scalar Network.dyn_peer[92] 	lookupHopsSig:mean 	19.8
scalar Network.dyn_peer[93] 	lookupTimeSig:mean 	1.2
scalar Network.dyn_peer[93] 	lookupStabilitySig:mean 	0.14396135509014
scalar Network.dyn_peer[93] 	lookupHopsSig:mean 	11.333333333333
scalar Network.dyn_peer[94] 	lookupTimeSig:mean 	1.5818181818182
scalar Network.dyn_peer[94] 	lookupStabilitySig:mean 	0.77573080106892
scalar Network.dyn_peer[94] 	lookupHopsSig:mean 	14.909090909091
scalar Network.dyn_peer[95] 	lookupTimeSig:mean 	1.9769230769231
scalar Network.dyn_peer[95] 	lookupStabilitySig:mean 	0.87366495421156
scalar Network.dyn_peer[95] 	lookupHopsSig:mean 	18.846153846154
scalar Network.dyn_peer[96] 	lookupTimeSig:mean 	1.12
scalar Network.dyn_peer[96] 	lookupStabilitySig:mean 	0.48595704883337
scalar Network.dyn_peer[96] 	lookupHopsSig:mean 	10.4
scalar Network.dyn_peer[97] 	lookupTimeSig:mean 	1.7
scalar Network.dyn_peer[97] 	lookupStabilitySig:mean 	0.67399269780144
scalar Network.dyn_peer[97] 	lookupHopsSig:mean 	16.1
scalar Network.dyn_peer[98] 	lookupTimeSig:mean 	4.7
scalar Network.dyn_peer[98] 	lookupStabilitySig:mean 	0.046488127360741
scalar Network.dyn_peer[98] 	lookupHopsSig:mean 	46.333333333333
scalar Network.dyn_peer[99] 	lookupTimeSig:mean 	2.66
scalar Network.dyn_peer[99] 	lookupStabilitySig:mean 	0.30762991309166
scalar Network.dyn_peer[99] 	lookupHopsSig:mean 	25.8
scalar Network.dyn_peer[100] 	lookupTimeSig:mean 	1.1666666666667
scalar Network.dyn_peer[100] 	lookupStabilitySig:mean 	-0.14999997615814
scalar Network.dyn_peer[100] 	lookupHopsSig:mean 	11
scalar Network.dyn_peer[101] 	lookupTimeSig:mean 	2.38
scalar Network.dyn_peer[101] 	lookupStabilitySig:mean 	0.59313224554062
scalar Network.dyn_peer[101] 	lookupHopsSig:mean 	23
scalar Network.dyn_peer[102] 	lookupTimeSig:mean 	1.4111111111111
scalar Network.dyn_peer[102] 	lookupStabilitySig:mean 	0.81888251032473
scalar Network.dyn_peer[102] 	lookupHopsSig:mean 	13.222222222222
scalar Network.dyn_peer[103] 	lookupTimeSig:mean 	1.9
scalar Network.dyn_peer[103] 	lookupStabilitySig:mean 	0.82787163380999
scalar Network.dyn_peer[103] 	lookupHopsSig:mean 	18.25
scalar Network.dyn_peer[104] 	lookupTimeSig:mean 	2.4166666666667
scalar Network.dyn_peer[104] 	lookupStabilitySig:mean 	0.45265857161333
scalar Network.dyn_peer[104] 	lookupHopsSig:mean 	23.333333333333
scalar Network.dyn_peer[105] 	lookupTimeSig:mean 	1.725
scalar Network.dyn_peer[105] 	lookupStabilitySig:mean 	0.43412323854864
scalar Network.dyn_peer[105] 	lookupHopsSig:mean 	16.5
scalar Network.dyn_peer[106] 	lookupTimeSig:mean 	2.375
scalar Network.dyn_peer[106] 	lookupStabilitySig:mean 	0.83024643268436
scalar Network.dyn_peer[106] 	lookupHopsSig:mean 	23
scalar Network.dyn_peer[107] 	lookupTimeSig:mean 	2
scalar Network.dyn_peer[107] 	lookupStabilitySig:mean 	0.92101770209741
scalar Network.dyn_peer[107] 	lookupHopsSig:mean 	19.090909090909
scalar Network.dyn_peer[108] 	lookupTimeSig:mean 	1.25
scalar Network.dyn_peer[108] 	lookupStabilitySig:mean 	0.78683943990618
scalar Network.dyn_peer[108] 	lookupHopsSig:mean 	11.6
scalar Network.dyn_peer[109] 	lookupTimeSig:mean 	1.9
scalar Network.dyn_peer[109] 	lookupStabilitySig:mean 	0.60191234946251
scalar Network.dyn_peer[109] 	lookupHopsSig:mean 	18.2
scalar Network.dyn_peer[110] 	lookupTimeSig:mean 	1.825
scalar Network.dyn_peer[110] 	lookupStabilitySig:mean 	0.84797546779737
scalar Network.dyn_peer[110] 	lookupHopsSig:mean 	17.375
scalar Network.dyn_peer[111] 	lookupTimeSig:mean 	2.18
scalar Network.dyn_peer[111] 	lookupStabilitySig:mean 	0.89638937599957
scalar Network.dyn_peer[111] 	lookupHopsSig:mean 	21
scalar Network.dyn_peer[112] 	lookupTimeSig:mean 	2.4714285714286
scalar Network.dyn_peer[112] 	lookupStabilitySig:mean 	0.67340916501624
scalar Network.dyn_peer[112] 	lookupHopsSig:mean 	23.857142857143
scalar Network.dyn_peer[113] 	lookupTimeSig:mean 	2.87
scalar Network.dyn_peer[113] 	lookupStabilitySig:mean 	0.92111725332215
scalar Network.dyn_peer[113] 	lookupHopsSig:mean 	27.8
scalar Network.dyn_peer[114] 	lookupTimeSig:mean 	1.4357142857143
scalar Network.dyn_peer[114] 	lookupStabilitySig:mean 	0.85289082772631
scalar Network.dyn_peer[114] 	lookupHopsSig:mean 	13.428571428571
scalar Network.dyn_peer[115] 	lookupTimeSig:mean 	1.5666666666667
scalar Network.dyn_peer[115] 	lookupStabilitySig:mean 	0.89875918300822
scalar Network.dyn_peer[115] 	lookupHopsSig:mean 	14.75
scalar Network.dyn_peer[116] 	lookupTimeSig:mean 	1.45
scalar Network.dyn_peer[116] 	lookupStabilitySig:mean 	0.2901789303869
scalar Network.dyn_peer[116] 	lookupHopsSig:mean 	13.75
scalar Network.dyn_peer[117] 	lookupTimeSig:mean 	2.06
scalar Network.dyn_peer[117] 	lookupStabilitySig:mean 	0.34517212808132
scalar Network.dyn_peer[117] 	lookupHopsSig:mean 	19.8
scalar Network.dyn_peer[118] 	lookupTimeSig:mean 	2.05
scalar Network.dyn_peer[118] 	lookupStabilitySig:mean 	0.66110014915466
scalar Network.dyn_peer[118] 	lookupHopsSig:mean 	19.666666666667
scalar Network.dyn_peer[119] 	lookupTimeSig:mean 	1.5
scalar Network.dyn_peer[119] 	lookupStabilitySig:mean 	0.61253281608224
scalar Network.dyn_peer[119] 	lookupHopsSig:mean 	14.2
scalar Network.dyn_peer[120] 	lookupTimeSig:mean 	3.9
scalar Network.dyn_peer[120] 	lookupStabilitySig:mean 	0.30985738833745
scalar Network.dyn_peer[120] 	lookupHopsSig:mean 	38.333333333333
scalar Network.dyn_peer[121] 	lookupTimeSig:mean 	1.2666666666667
scalar Network.dyn_peer[121] 	lookupStabilitySig:mean 	0.0061930964390437
scalar Network.dyn_peer[121] 	lookupHopsSig:mean 	12
scalar Network.dyn_peer[122] 	lookupTimeSig:mean 	1.59
scalar Network.dyn_peer[122] 	lookupStabilitySig:mean 	0.65760228801519
scalar Network.dyn_peer[122] 	lookupHopsSig:mean 	15
scalar Network.dyn_peer[123] 	lookupTimeSig:mean 	2.2666666666667
scalar Network.dyn_peer[123] 	lookupStabilitySig:mean 	-0.010046695669492
scalar Network.dyn_peer[123] 	lookupHopsSig:mean 	22
scalar Network.dyn_peer[124] 	lookupTimeSig:mean 	1.775
scalar Network.dyn_peer[124] 	lookupStabilitySig:mean 	0.40635017585009
scalar Network.dyn_peer[124] 	lookupHopsSig:mean 	17
scalar Network.dyn_peer[125] 	lookupTimeSig:mean 	0.91666666666667
scalar Network.dyn_peer[125] 	lookupStabilitySig:mean 	0.60212121655544
scalar Network.dyn_peer[125] 	lookupHopsSig:mean 	8.3333333333333
scalar Network.dyn_peer[126] 	lookupTimeSig:mean 	2.68
scalar Network.dyn_peer[126] 	lookupStabilitySig:mean 	0.6580124180764
scalar Network.dyn_peer[126] 	lookupHopsSig:mean 	26
scalar Network.dyn_peer[127] 	lookupTimeSig:mean 	1.98
scalar Network.dyn_peer[127] 	lookupStabilitySig:mean 	0.3796072140336
scalar Network.dyn_peer[127] 	lookupHopsSig:mean 	19
scalar Network.dyn_peer[128] 	lookupTimeSig:mean 	3.225
scalar Network.dyn_peer[128] 	lookupStabilitySig:mean 	0.47765715606511
scalar Network.dyn_peer[128] 	lookupHopsSig:mean 	31.5
scalar Network.dyn_peer[129] 	lookupTimeSig:mean 	2.2428571428571
scalar Network.dyn_peer[129] 	lookupStabilitySig:mean 	0.60284549955811
scalar Network.dyn_peer[129] 	lookupHopsSig:mean 	21.571428571429
scalar Network.dyn_peer[130] 	lookupTimeSig:mean 	1.5333333333333
scalar Network.dyn_peer[130] 	lookupStabilitySig:mean 	0.72162852907139
scalar Network.dyn_peer[130] 	lookupHopsSig:mean 	14.444444444444
scalar Network.dyn_peer[131] 	lookupTimeSig:mean 	1.2
scalar Network.dyn_peer[131] 	lookupStabilitySig:mean 	0.58941249975136
scalar Network.dyn_peer[131] 	lookupHopsSig:mean 	11.142857142857
scalar Network.dyn_peer[132] 	lookupTimeSig:mean 	2.2
scalar Network.dyn_peer[132] 	lookupStabilitySig:mean 	0.77335528526455
scalar Network.dyn_peer[132] 	lookupHopsSig:mean 	21.2
scalar Network.dyn_peer[133] 	lookupTimeSig:mean 	1.64
scalar Network.dyn_peer[133] 	lookupStabilitySig:mean 	0.69219650179148
scalar Network.dyn_peer[133] 	lookupHopsSig:mean 	15.6
scalar Network.dyn_peer[134] 	lookupTimeSig:mean 	1.27
scalar Network.dyn_peer[134] 	lookupStabilitySig:mean 	0.72745188325644
scalar Network.dyn_peer[134] 	lookupHopsSig:mean 	11.8
scalar Network.dyn_peer[135] 	lookupTimeSig:mean 	3.7
scalar Network.dyn_peer[135] 	lookupStabilitySig:mean 	0.55537189543247
scalar Network.dyn_peer[135] 	lookupHopsSig:mean 	36.5
scalar Network.dyn_peer[136] 	lookupTimeSig:mean 	2.075
scalar Network.dyn_peer[136] 	lookupStabilitySig:mean 	0.4773347042501
scalar Network.dyn_peer[136] 	lookupHopsSig:mean 	20
scalar Network.dyn_peer[137] 	lookupTimeSig:mean 	1.6
scalar Network.dyn_peer[137] 	lookupStabilitySig:mean 	0.07799144089222
scalar Network.dyn_peer[137] 	lookupHopsSig:mean 	15.5
scalar Network.dyn_peer[138] 	lookupTimeSig:mean 	1.6
scalar Network.dyn_peer[138] 	lookupStabilitySig:mean 	0.23813129464785
scalar Network.dyn_peer[138] 	lookupHopsSig:mean 	15.333333333333
scalar Network.dyn_peer[139] 	lookupTimeSig:mean 	2.26
scalar Network.dyn_peer[139] 	lookupStabilitySig:mean 	0.34520562961698
scalar Network.dyn_peer[139] 	lookupHopsSig:mean 	21.8
scalar Network.dyn_peer[140] 	lookupTimeSig:mean 	1.7888888888889
scalar Network.dyn_peer[140] 	lookupStabilitySig:mean 	0.76309391080091
scalar Network.dyn_peer[140] 	lookupHopsSig:mean 	17
scalar Network.dyn_peer[141] 	lookupTimeSig:mean 	2.14
scalar Network.dyn_peer[141] 	lookupStabilitySig:mean 	0.95642333845608
scalar Network.dyn_peer[141] 	lookupHopsSig:mean 	20.5
scalar Network.dyn_peer[142] 	lookupTimeSig:mean 	1.1
scalar Network.dyn_peer[142] 	lookupStabilitySig:mean 	-0.45714288949966
scalar Network.dyn_peer[142] 	lookupHopsSig:mean 	10.5
scalar Network.dyn_peer[143] 	lookupTimeSig:mean 	1.6
scalar Network.dyn_peer[143] 	lookupStabilitySig:mean 	0.26687209804853
scalar Network.dyn_peer[143] 	lookupHopsSig:mean 	15.333333333333
scalar Network.dyn_peer[144] 	lookupTimeSig:mean 	1.2461538461538
scalar Network.dyn_peer[144] 	lookupStabilitySig:mean 	0.81483187956306
scalar Network.dyn_peer[144] 	lookupHopsSig:mean 	11.538461538462
scalar Network.dyn_peer[145] 	lookupTimeSig:mean 	0.675
scalar Network.dyn_peer[145] 	lookupStabilitySig:mean 	0.63343187840655
scalar Network.dyn_peer[145] 	lookupHopsSig:mean 	5.875
scalar Network.dyn_peer[146] 	lookupTimeSig:mean 	1.2777777777778
scalar Network.dyn_peer[146] 	lookupStabilitySig:mean 	0.64872497604746
scalar Network.dyn_peer[146] 	lookupHopsSig:mean 	11.888888888889
scalar Network.dyn_peer[147] 	lookupTimeSig:mean 	1.7
scalar Network.dyn_peer[147] 	lookupStabilitySig:mean 	0.93897486888131
scalar Network.dyn_peer[147] 	lookupHopsSig:mean 	16.111111111111
scalar Network.dyn_peer[148] 	lookupTimeSig:mean 	1.9666666666667
scalar Network.dyn_peer[148] 	lookupStabilitySig:mean 	0.71974731733402
scalar Network.dyn_peer[148] 	lookupHopsSig:mean 	18.833333333333
scalar Network.dyn_peer[149] 	lookupTimeSig:mean 	2.9
scalar Network.dyn_peer[149] 	lookupStabilitySig:mean 	0.57518582046032
scalar Network.dyn_peer[149] 	lookupHopsSig:mean 	28.5
scalar Network.dyn_peer[150] 	lookupTimeSig:mean 	1.15
scalar Network.dyn_peer[150] 	lookupStabilitySig:mean 	0.4891690928489
scalar Network.dyn_peer[150] 	lookupHopsSig:mean 	10.75
scalar Network.dyn_peer[151] 	lookupTimeSig:mean 	1.6
scalar Network.dyn_peer[151] 	lookupStabilitySig:mean 	0.62949252687395
scalar Network.dyn_peer[151] 	lookupHopsSig:mean 	15.2
scalar Network.dyn_peer[152] 	lookupTimeSig:mean 	2.45
scalar Network.dyn_peer[152] 	lookupStabilitySig:mean 	0.89716813843697
scalar Network.dyn_peer[152] 	lookupHopsSig:mean 	23.6
scalar Network.dyn_peer[153] 	lookupTimeSig:mean 	2.1333333333333
scalar Network.dyn_peer[153] 	lookupStabilitySig:mean 	0.59135218302254
scalar Network.dyn_peer[153] 	lookupHopsSig:mean 	20.5
scalar Network.dyn_peer[154] 	lookupTimeSig:mean 	1.4444444444444
scalar Network.dyn_peer[154] 	lookupStabilitySig:mean 	0.84775548521429
scalar Network.dyn_peer[154] 	lookupHopsSig:mean 	13.555555555556
scalar Network.dyn_peer[155] 	lookupTimeSig:mean 	2.0777777777778
scalar Network.dyn_peer[155] 	lookupStabilitySig:mean 	0.91474825306796
scalar Network.dyn_peer[155] 	lookupHopsSig:mean 	19.888888888889
scalar Network.dyn_peer[156] 	lookupTimeSig:mean 	2.2111111111111
scalar Network.dyn_peer[156] 	lookupStabilitySig:mean 	0.70053499771489
scalar Network.dyn_peer[156] 	lookupHopsSig:mean 	21.222222222222
scalar Network.dyn_peer[157] 	lookupTimeSig:mean 	1.225
scalar Network.dyn_peer[157] 	lookupStabilitySig:mean 	0.41027103923261
scalar Network.dyn_peer[157] 	lookupHopsSig:mean 	11.5
scalar Network.dyn_peer[158] 	lookupTimeSig:mean 	1.97
scalar Network.dyn_peer[158] 	lookupStabilitySig:mean 	0.84328978974372
scalar Network.dyn_peer[158] 	lookupHopsSig:mean 	18.8
scalar Network.dyn_peer[159] 	lookupTimeSig:mean 	2.0571428571429
scalar Network.dyn_peer[159] 	lookupStabilitySig:mean 	0.69260459034038
scalar Network.dyn_peer[159] 	lookupHopsSig:mean 	19.714285714286
scalar Network.dyn_peer[160] 	lookupTimeSig:mean 	1.5
scalar Network.dyn_peer[160] 	lookupStabilitySig:mean 	0.5865077705433
scalar Network.dyn_peer[160] 	lookupHopsSig:mean 	14.166666666667
scalar Network.dyn_peer[161] 	lookupTimeSig:mean 	1.8727272727273
scalar Network.dyn_peer[161] 	lookupStabilitySig:mean 	0.73584636546333
scalar Network.dyn_peer[161] 	lookupHopsSig:mean 	17.818181818182
scalar Network.dyn_peer[162] 	lookupTimeSig:mean 	2.3166666666667
scalar Network.dyn_peer[162] 	lookupStabilitySig:mean 	0.66911452356726
scalar Network.dyn_peer[162] 	lookupHopsSig:mean 	22.333333333333
scalar Network.dyn_peer[163] 	lookupTimeSig:mean 	2.2833333333333
scalar Network.dyn_peer[163] 	lookupStabilitySig:mean 	0.86007915530354
scalar Network.dyn_peer[163] 	lookupHopsSig:mean 	22
scalar Network.dyn_peer[164] 	lookupTimeSig:mean 	1.3
scalar Network.dyn_peer[164] 	lookupStabilitySig:mean 	0.20822598785162
scalar Network.dyn_peer[164] 	lookupHopsSig:mean 	12.25
scalar Network.dyn_peer[165] 	lookupTimeSig:mean 	3
scalar Network.dyn_peer[165] 	lookupStabilitySig:mean 	0.44613946229219
scalar Network.dyn_peer[165] 	lookupHopsSig:mean 	29.5
scalar Network.dyn_peer[166] 	lookupTimeSig:mean 	1.4666666666667
scalar Network.dyn_peer[166] 	lookupStabilitySig:mean 	0.86024074306867
scalar Network.dyn_peer[166] 	lookupHopsSig:mean 	13.75
scalar Network.dyn_peer[167] 	lookupTimeSig:mean 	5.25
scalar Network.dyn_peer[167] 	lookupStabilitySig:mean 	0.19125561416149
scalar Network.dyn_peer[167] 	lookupHopsSig:mean 	52
scalar Network.dyn_peer[168] 	lookupTimeSig:mean 	2.025
scalar Network.dyn_peer[168] 	lookupStabilitySig:mean 	0.8799192594015
scalar Network.dyn_peer[168] 	lookupHopsSig:mean 	19.375
scalar Network.dyn_peer[169] 	lookupTimeSig:mean 	1.575
scalar Network.dyn_peer[169] 	lookupStabilitySig:mean 	0.80935429375677
scalar Network.dyn_peer[169] 	lookupHopsSig:mean 	14.875
scalar Network.dyn_peer[170] 	lookupTimeSig:mean 	1.5307692307692
scalar Network.dyn_peer[170] 	lookupStabilitySig:mean 	0.7561221021729
scalar Network.dyn_peer[170] 	lookupHopsSig:mean 	14.384615384615
scalar Network.dyn_peer[171] 	lookupTimeSig:mean 	1.5375
scalar Network.dyn_peer[171] 	lookupStabilitySig:mean 	0.87794394220691
scalar Network.dyn_peer[171] 	lookupHopsSig:mean 	14.5
scalar Network.dyn_peer[172] 	lookupTimeSig:mean 	1.7
scalar Network.dyn_peer[172] 	lookupStabilitySig:mean 	0.77158598378301
scalar Network.dyn_peer[172] 	lookupHopsSig:mean 	16.2
scalar Network.dyn_peer[173] 	lookupTimeSig:mean 	1.65
scalar Network.dyn_peer[173] 	lookupStabilitySig:mean 	0.77039638161659
scalar Network.dyn_peer[173] 	lookupHopsSig:mean 	15.666666666667
scalar Network.dyn_peer[174] 	lookupTimeSig:mean 	2.3
scalar Network.dyn_peer[174] 	lookupStabilitySig:mean 	0.35187568627298
scalar Network.dyn_peer[174] 	lookupHopsSig:mean 	22.2
scalar Network.dyn_peer[175] 	lookupTimeSig:mean 	1.54
scalar Network.dyn_peer[175] 	lookupStabilitySig:mean 	0.57343372032046
scalar Network.dyn_peer[175] 	lookupHopsSig:mean 	14.6
scalar Network.dyn_peer[176] 	lookupTimeSig:mean 	1.6125
scalar Network.dyn_peer[176] 	lookupStabilitySig:mean 	0.67641237052158
scalar Network.dyn_peer[176] 	lookupHopsSig:mean 	15.25
scalar Network.dyn_peer[177] 	lookupTimeSig:mean 	2.25
scalar Network.dyn_peer[177] 	lookupStabilitySig:mean 	0.47272726893425
scalar Network.dyn_peer[177] 	lookupHopsSig:mean 	22
scalar Network.dyn_peer[178] 	lookupTimeSig:mean 	1.52
scalar Network.dyn_peer[178] 	lookupStabilitySig:mean 	0.76924294829369
scalar Network.dyn_peer[178] 	lookupHopsSig:mean 	14.4
scalar Network.dyn_peer[179] 	lookupTimeSig:mean 	1.9
scalar Network.dyn_peer[179] 	lookupStabilitySig:mean 	0.90692255515023
scalar Network.dyn_peer[179] 	lookupHopsSig:mean 	18.125
scalar Network.dyn_peer[180] 	lookupTimeSig:mean 	2.3818181818182
scalar Network.dyn_peer[180] 	lookupStabilitySig:mean 	0.96440110999075
scalar Network.dyn_peer[180] 	lookupHopsSig:mean 	22.909090909091
scalar Network.dyn_peer[181] 	lookupTimeSig:mean 	3.95
scalar Network.dyn_peer[181] 	lookupStabilitySig:mean 	-0.41524817794561
scalar Network.dyn_peer[181] 	lookupHopsSig:mean 	39
scalar Network.dyn_peer[182] 	lookupTimeSig:mean 	2.4461538461538
scalar Network.dyn_peer[182] 	lookupStabilitySig:mean 	0.96485533343198
scalar Network.dyn_peer[182] 	lookupHopsSig:mean 	23.538461538462
scalar Network.dyn_peer[183] 	lookupTimeSig:mean 	2.6
scalar Network.dyn_peer[183] 	lookupStabilitySig:mean 	0.089860126376152
scalar Network.dyn_peer[183] 	lookupHopsSig:mean 	25.5
scalar Network.dyn_peer[184] 	lookupTimeSig:mean 	2.72
scalar Network.dyn_peer[184] 	lookupStabilitySig:mean 	0.86048440076411
scalar Network.dyn_peer[184] 	lookupHopsSig:mean 	26.4
scalar Network.dyn_peer[185] 	lookupTimeSig:mean 	1
scalar Network.dyn_peer[185] 	lookupStabilitySig:mean 	0.61565999207752
scalar Network.dyn_peer[185] 	lookupHopsSig:mean 	9.1428571428571
scalar Network.dyn_peer[186] 	lookupTimeSig:mean 	1.96
scalar Network.dyn_peer[186] 	lookupStabilitySig:mean 	0.61207015216351
scalar Network.dyn_peer[186] 	lookupHopsSig:mean 	18.8
scalar Network.dyn_peer[187] 	lookupTimeSig:mean 	3.2666666666667
scalar Network.dyn_peer[187] 	lookupStabilitySig:mean 	0.46050724883874
scalar Network.dyn_peer[187] 	lookupHopsSig:mean 	32
scalar Network.dyn_peer[188] 	lookupTimeSig:mean 	1.88
scalar Network.dyn_peer[188] 	lookupStabilitySig:mean 	0.53837573602796
scalar Network.dyn_peer[188] 	lookupHopsSig:mean 	18
scalar Network.dyn_peer[189] 	lookupTimeSig:mean 	3.6666666666667
scalar Network.dyn_peer[189] 	lookupStabilitySig:mean 	0.36046651874979
scalar Network.dyn_peer[189] 	lookupHopsSig:mean 	36
scalar Network.dyn_peer[190] 	lookupTimeSig:mean 	1.9333333333333
scalar Network.dyn_peer[190] 	lookupStabilitySig:mean 	0.59586367756128
scalar Network.dyn_peer[190] 	lookupHopsSig:mean 	18.5
scalar Network.dyn_peer[191] 	lookupTimeSig:mean 	2.1
scalar Network.dyn_peer[191] 	lookupStabilitySig:mean 	0.85394875146449
scalar Network.dyn_peer[191] 	lookupHopsSig:mean 	20.25
scalar Network.dyn_peer[192] 	lookupTimeSig:mean 	2.0285714285714
scalar Network.dyn_peer[192] 	lookupStabilitySig:mean 	0.69445363352341
scalar Network.dyn_peer[192] 	lookupHopsSig:mean 	19.428571428571
scalar Network.dyn_peer[193] 	lookupTimeSig:mean 	3.6
scalar Network.dyn_peer[193] 	lookupStabilitySig:mean 	0.91228968948126
scalar Network.dyn_peer[193] 	lookupHopsSig:mean 	35.2
scalar Network.dyn_peer[194] 	lookupTimeSig:mean 	2.75
scalar Network.dyn_peer[194] 	lookupStabilitySig:mean 	0.38721617590636
scalar Network.dyn_peer[194] 	lookupHopsSig:mean 	26.75
scalar Network.dyn_peer[195] 	lookupTimeSig:mean 	2.7
scalar Network.dyn_peer[195] 	lookupStabilitySig:mean 	0.47988199256361
scalar Network.dyn_peer[195] 	lookupHopsSig:mean 	26.25
scalar Network.dyn_peer[196] 	lookupTimeSig:mean 	1.5
scalar Network.dyn_peer[196] 	lookupStabilitySig:mean 	0.95050702663139
scalar Network.dyn_peer[196] 	lookupHopsSig:mean 	14.083333333333
scalar Network.dyn_peer[197] 	lookupTimeSig:mean 	3.4
scalar Network.dyn_peer[197] 	lookupStabilitySig:mean 	0.70045668259263
scalar Network.dyn_peer[197] 	lookupHopsSig:mean 	33.5
scalar Network.dyn_peer[198] 	lookupTimeSig:mean 	0.74
scalar Network.dyn_peer[198] 	lookupStabilitySig:mean 	0.51737829223275
scalar Network.dyn_peer[198] 	lookupHopsSig:mean 	6.6
scalar Network.dyn_peer[199] 	lookupTimeSig:mean 	3.5
scalar Network.dyn_peer[199] 	lookupStabilitySig:mean 	0.73239195626229
scalar Network.dyn_peer[199] 	lookupHopsSig:mean 	34.25
scalar Network.dyn_peer[200] 	lookupTimeSig:mean 	2
scalar Network.dyn_peer[200] 	lookupStabilitySig:mean 	0.74471955218663
scalar Network.dyn_peer[200] 	lookupHopsSig:mean 	19.111111111111
scalar Network.dyn_peer[201] 	lookupTimeSig:mean 	1.9
scalar Network.dyn_peer[201] 	lookupStabilitySig:mean 	0.902170322525
scalar Network.dyn_peer[201] 	lookupHopsSig:mean 	18.111111111111
scalar Network.dyn_peer[202] 	lookupTimeSig:mean 	3.5
scalar Network.dyn_peer[202] 	lookupStabilitySig:mean 	0.64345793426037
scalar Network.dyn_peer[202] 	lookupHopsSig:mean 	34.5
scalar Network.dyn_peer[203] 	lookupTimeSig:mean 	1.75
scalar Network.dyn_peer[203] 	lookupStabilitySig:mean 	0.58854247722775
scalar Network.dyn_peer[203] 	lookupHopsSig:mean 	16.75
scalar Network.dyn_peer[204] 	lookupTimeSig:mean 	2.6625
scalar Network.dyn_peer[204] 	lookupStabilitySig:mean 	0.95057000406086
scalar Network.dyn_peer[204] 	lookupHopsSig:mean 	25.75
scalar Network.dyn_peer[205] 	lookupTimeSig:mean 	1.95
scalar Network.dyn_peer[205] 	lookupStabilitySig:mean 	0.59373053908348
scalar Network.dyn_peer[205] 	lookupHopsSig:mean 	18.666666666667
scalar Network.dyn_peer[206] 	lookupTimeSig:mean 	1.7166666666667
scalar Network.dyn_peer[206] 	lookupStabilitySig:mean 	0.9547870271684
scalar Network.dyn_peer[206] 	lookupHopsSig:mean 	16.25
scalar Network.dyn_peer[207] 	lookupTimeSig:mean 	2.875
scalar Network.dyn_peer[207] 	lookupStabilitySig:mean 	0.55182740651071
scalar Network.dyn_peer[207] 	lookupHopsSig:mean 	28
scalar Network.dyn_peer[208] 	lookupTimeSig:mean 	2.9
scalar Network.dyn_peer[208] 	lookupStabilitySig:mean 	0.94963721915459
scalar Network.dyn_peer[208] 	lookupHopsSig:mean 	28.166666666667
scalar Network.dyn_peer[209] 	lookupTimeSig:mean 	1.475
scalar Network.dyn_peer[209] 	lookupStabilitySig:mean 	0.24504689872265
scalar Network.dyn_peer[209] 	lookupHopsSig:mean 	14
scalar Network.dyn_peer[210] 	lookupTimeSig:mean 	1.875
scalar Network.dyn_peer[210] 	lookupStabilitySig:mean 	0.32735930383205
scalar Network.dyn_peer[210] 	lookupHopsSig:mean 	18
scalar Network.dyn_peer[211] 	lookupTimeSig:mean 	1.2363636363636
scalar Network.dyn_peer[211] 	lookupStabilitySig:mean 	0.80640466197986
scalar Network.dyn_peer[211] 	lookupHopsSig:mean 	11.454545454545
scalar Network.dyn_peer[212] 	lookupTimeSig:mean 	1.9818181818182
scalar Network.dyn_peer[212] 	lookupStabilitySig:mean 	0.91145008146255
scalar Network.dyn_peer[212] 	lookupHopsSig:mean 	18.909090909091
scalar Network.dyn_peer[213] 	lookupTimeSig:mean 	4.25
scalar Network.dyn_peer[213] 	lookupStabilitySig:mean 	0.58649468794465
scalar Network.dyn_peer[213] 	lookupHopsSig:mean 	41.75
scalar Network.dyn_peer[214] 	lookupTimeSig:mean 	2.125
scalar Network.dyn_peer[214] 	lookupStabilitySig:mean 	0.50579005479813
scalar Network.dyn_peer[214] 	lookupHopsSig:mean 	20.5
scalar Network.dyn_peer[215] 	lookupTimeSig:mean 	1.8
scalar Network.dyn_peer[215] 	lookupStabilitySig:mean 	0.48512794946631
scalar Network.dyn_peer[215] 	lookupHopsSig:mean 	17.333333333333
scalar Network.dyn_peer[216] 	lookupTimeSig:mean 	1.54
scalar Network.dyn_peer[216] 	lookupStabilitySig:mean 	0.80400172062218
scalar Network.dyn_peer[216] 	lookupHopsSig:mean 	14.466666666667
scalar Network.dyn_peer[217] 	lookupTimeSig:mean 	3.4333333333333
scalar Network.dyn_peer[217] 	lookupStabilitySig:mean 	0.35570844511191
scalar Network.dyn_peer[217] 	lookupHopsSig:mean 	33.666666666667
scalar Network.dyn_peer[218] 	lookupTimeSig:mean 	3.64
scalar Network.dyn_peer[218] 	lookupStabilitySig:mean 	0.93888798505068
scalar Network.dyn_peer[218] 	lookupHopsSig:mean 	35.6
scalar Network.dyn_peer[219] 	lookupTimeSig:mean 	1.9
scalar Network.dyn_peer[219] 	lookupStabilitySig:mean 	0.36561770985524
scalar Network.dyn_peer[219] 	lookupHopsSig:mean 	18.333333333333
scalar Network.dyn_peer[220] 	lookupTimeSig:mean 	1.7888888888889
scalar Network.dyn_peer[220] 	lookupStabilitySig:mean 	0.74324284814712
scalar Network.dyn_peer[220] 	lookupHopsSig:mean 	17
scalar Network.dyn_peer[221] 	lookupTimeSig:mean 	1.36
scalar Network.dyn_peer[221] 	lookupStabilitySig:mean 	0.54686750844121
scalar Network.dyn_peer[221] 	lookupHopsSig:mean 	12.8
scalar Network.dyn_peer[222] 	lookupTimeSig:mean 	1.7285714285714
scalar Network.dyn_peer[222] 	lookupStabilitySig:mean 	0.70028640196792
scalar Network.dyn_peer[222] 	lookupHopsSig:mean 	16.428571428571
scalar Network.dyn_peer[223] 	lookupTimeSig:mean 	1.7666666666667
scalar Network.dyn_peer[223] 	lookupStabilitySig:mean 	0.51667065018167
scalar Network.dyn_peer[223] 	lookupHopsSig:mean 	16.833333333333
scalar Network.dyn_peer[224] 	lookupTimeSig:mean 	1.8375
scalar Network.dyn_peer[224] 	lookupStabilitySig:mean 	0.93170285108499
scalar Network.dyn_peer[224] 	lookupHopsSig:mean 	17.5
scalar Network.dyn_peer[225] 	lookupTimeSig:mean 	1.85
scalar Network.dyn_peer[225] 	lookupStabilitySig:mean 	0.25933016836643
scalar Network.dyn_peer[225] 	lookupHopsSig:mean 	18
scalar Network.dyn_peer[226] 	lookupTimeSig:mean 	2
scalar Network.dyn_peer[226] 	lookupStabilitySig:mean 	0.50657939910889
scalar Network.dyn_peer[226] 	lookupHopsSig:mean 	19.333333333333
scalar Network.dyn_peer[227] 	lookupTimeSig:mean 	1.75
scalar Network.dyn_peer[227] 	lookupStabilitySig:mean 	0.32747458666563
scalar Network.dyn_peer[227] 	lookupHopsSig:mean 	17
scalar Network.dyn_peer[228] 	lookupTimeSig:mean 	2.7
scalar Network.dyn_peer[228] 	lookupStabilitySig:mean 	-0.016161640485128
scalar Network.dyn_peer[228] 	lookupHopsSig:mean 	26.333333333333
scalar Network.dyn_peer[229] 	lookupTimeSig:mean 	2.9
scalar Network.dyn_peer[229] 	lookupStabilitySig:mean 	0.59434745274484
scalar Network.dyn_peer[229] 	lookupHopsSig:mean 	28.25
scalar Network.dyn_peer[230] 	lookupTimeSig:mean 	2.1857142857143
scalar Network.dyn_peer[230] 	lookupStabilitySig:mean 	0.76486186337258
scalar Network.dyn_peer[230] 	lookupHopsSig:mean 	21
scalar Network.dyn_peer[231] 	lookupTimeSig:mean 	2.025
scalar Network.dyn_peer[231] 	lookupStabilitySig:mean 	0.79811792075634
scalar Network.dyn_peer[231] 	lookupHopsSig:mean 	19.5
scalar Network.dyn_peer[232] 	lookupTimeSig:mean 	1.38
scalar Network.dyn_peer[232] 	lookupStabilitySig:mean 	0.33259199112654
scalar Network.dyn_peer[232] 	lookupHopsSig:mean 	13
scalar Network.dyn_peer[233] 	lookupTimeSig:mean 	4.1
scalar Network.dyn_peer[233] 	lookupStabilitySig:mean 	0.079212322831154
scalar Network.dyn_peer[233] 	lookupHopsSig:mean 	40.5
scalar Network.dyn_peer[234] 	lookupTimeSig:mean 	1.36
scalar Network.dyn_peer[234] 	lookupStabilitySig:mean 	0.67400061860681
scalar Network.dyn_peer[234] 	lookupHopsSig:mean 	12.8
scalar Network.dyn_peer[235] 	lookupTimeSig:mean 	1.275
scalar Network.dyn_peer[235] 	lookupStabilitySig:mean 	0.41108560096473
scalar Network.dyn_peer[235] 	lookupHopsSig:mean 	12
scalar Network.dyn_peer[236] 	lookupTimeSig:mean 	1.3285714285714
scalar Network.dyn_peer[236] 	lookupStabilitySig:mean 	0.65609750949911
scalar Network.dyn_peer[236] 	lookupHopsSig:mean 	12.428571428571
scalar Network.dyn_peer[237] 	lookupTimeSig:mean 	1.9714285714286
scalar Network.dyn_peer[237] 	lookupStabilitySig:mean 	0.71796462525214
scalar Network.dyn_peer[237] 	lookupHopsSig:mean 	18.857142857143
scalar Network.dyn_peer[238] 	lookupTimeSig:mean 	0.93333333333333
scalar Network.dyn_peer[238] 	lookupStabilitySig:mean 	0.037499999006589
scalar Network.dyn_peer[238] 	lookupHopsSig:mean 	8.6666666666667
scalar Network.dyn_peer[239] 	lookupTimeSig:mean 	1.56
scalar Network.dyn_peer[239] 	lookupStabilitySig:mean 	0.38673125654459
scalar Network.dyn_peer[239] 	lookupHopsSig:mean 	14.8
scalar Network.dyn_peer[240] 	lookupTimeSig:mean 	2.9
scalar Network.dyn_peer[240] 	lookupStabilitySig:mean 	-0.073913022875786
scalar Network.dyn_peer[240] 	lookupHopsSig:mean 	28.5
scalar Network.dyn_peer[241] 	lookupTimeSig:mean 	1.4545454545455
scalar Network.dyn_peer[241] 	lookupStabilitySig:mean 	0.91221744541756
scalar Network.dyn_peer[241] 	lookupHopsSig:mean 	13.636363636364
scalar Network.dyn_peer[242] 	lookupTimeSig:mean 	1.82
scalar Network.dyn_peer[242] 	lookupStabilitySig:mean 	0.69118825979531
scalar Network.dyn_peer[242] 	lookupHopsSig:mean 	17.3
scalar Network.dyn_peer[243] 	lookupTimeSig:mean 	2.6
scalar Network.dyn_peer[243] 	lookupStabilitySig:mean 	0.92944538140936
scalar Network.dyn_peer[243] 	lookupHopsSig:mean 	25.142857142857
scalar Network.dyn_peer[244] 	lookupTimeSig:mean 	2.0666666666667
scalar Network.dyn_peer[244] 	lookupStabilitySig:mean 	0.93681558273319
scalar Network.dyn_peer[244] 	lookupHopsSig:mean 	19.777777777778
scalar Network.dyn_peer[245] 	lookupTimeSig:mean 	1
scalar Network.dyn_peer[245] 	lookupStabilitySig:mean 	0.54079401648293
scalar Network.dyn_peer[245] 	lookupHopsSig:mean 	9.1666666666667
scalar Network.dyn_peer[246] 	lookupTimeSig:mean 	4.5
scalar Network.dyn_peer[246] 	lookupStabilitySig:mean 	0.063314728438854
scalar Network.dyn_peer[246] 	lookupHopsSig:mean 	44.5
scalar Network.dyn_peer[247] 	lookupTimeSig:mean 	2.4714285714286
scalar Network.dyn_peer[247] 	lookupStabilitySig:mean 	0.94410447816231
scalar Network.dyn_peer[247] 	lookupHopsSig:mean 	23.857142857143
scalar Network.dyn_peer[248] 	lookupTimeSig:mean 	1.5857142857143
scalar Network.dyn_peer[248] 	lookupStabilitySig:mean 	0.51419785938093
scalar Network.dyn_peer[248] 	lookupHopsSig:mean 	15
scalar Network.dyn_peer[249] 	lookupTimeSig:mean 	2.5666666666667
scalar Network.dyn_peer[249] 	lookupStabilitySig:mean 	0.85101377250006
scalar Network.dyn_peer[249] 	lookupHopsSig:mean 	24.833333333333
scalar Network.dyn_peer[250] 	lookupTimeSig:mean 	1.6294117647059
scalar Network.dyn_peer[250] 	lookupStabilitySig:mean 	0.88008826699875
scalar Network.dyn_peer[250] 	lookupHopsSig:mean 	15.352941176471
scalar Network.dyn_peer[251] 	lookupTimeSig:mean 	0.55
scalar Network.dyn_peer[251] 	lookupStabilitySig:mean 	0.28854165226221
scalar Network.dyn_peer[251] 	lookupHopsSig:mean 	4.75
scalar Network.dyn_peer[252] 	lookupTimeSig:mean 	3.2333333333333
scalar Network.dyn_peer[252] 	lookupStabilitySig:mean 	0.4192214285334
scalar Network.dyn_peer[252] 	lookupHopsSig:mean 	31.666666666667
scalar Network.dyn_peer[253] 	lookupTimeSig:mean 	1.5777777777778
scalar Network.dyn_peer[253] 	lookupStabilitySig:mean 	0.8548294171277
scalar Network.dyn_peer[253] 	lookupHopsSig:mean 	14.888888888889
scalar Network.dyn_peer[254] 	lookupTimeSig:mean 	2.86
scalar Network.dyn_peer[254] 	lookupStabilitySig:mean 	0.74766415804625
scalar Network.dyn_peer[254] 	lookupHopsSig:mean 	27.8
scalar Network.dyn_peer[255] 	lookupTimeSig:mean 	2.7333333333333
scalar Network.dyn_peer[255] 	lookupStabilitySig:mean 	0.19936683277289
scalar Network.dyn_peer[255] 	lookupHopsSig:mean 	26.666666666667
scalar Network.dyn_peer[256] 	lookupTimeSig:mean 	2.2125
scalar Network.dyn_peer[256] 	lookupStabilitySig:mean 	0.94822840043344
scalar Network.dyn_peer[256] 	lookupHopsSig:mean 	21.25
scalar Network.dyn_peer[257] 	lookupTimeSig:mean 	2
scalar Network.dyn_peer[257] 	lookupStabilitySig:mean 	0.93640764305989
scalar Network.dyn_peer[257] 	lookupHopsSig:mean 	19.111111111111
scalar Network.dyn_peer[258] 	lookupTimeSig:mean 	1.675
scalar Network.dyn_peer[258] 	lookupStabilitySig:mean 	0.52973737474531
scalar Network.dyn_peer[258] 	lookupHopsSig:mean 	16
scalar Network.dyn_peer[259] 	lookupTimeSig:mean 	3
scalar Network.dyn_peer[259] 	lookupStabilitySig:mean 	0.41788078844547
scalar Network.dyn_peer[259] 	lookupHopsSig:mean 	29.5
scalar Network.dyn_peer[260] 	lookupTimeSig:mean 	3.4666666666667
scalar Network.dyn_peer[260] 	lookupStabilitySig:mean 	0.071014483769735
scalar Network.dyn_peer[260] 	lookupHopsSig:mean 	34
scalar Network.dyn_peer[261] 	lookupTimeSig:mean 	2.05
scalar Network.dyn_peer[261] 	lookupStabilitySig:mean 	0.51993818953633
scalar Network.dyn_peer[261] 	lookupHopsSig:mean 	19.75
scalar Network.dyn_peer[262] 	lookupTimeSig:mean 	1.4
scalar Network.dyn_peer[262] 	lookupStabilitySig:mean 	0.72904444352857
scalar Network.dyn_peer[262] 	lookupHopsSig:mean 	13.142857142857
scalar Network.dyn_peer[263] 	lookupTimeSig:mean 	2.0666666666667
scalar Network.dyn_peer[263] 	lookupStabilitySig:mean 	0.94430508059061
scalar Network.dyn_peer[263] 	lookupHopsSig:mean 	19.75
scalar Network.dyn_peer[264] 	lookupTimeSig:mean 	1.95
scalar Network.dyn_peer[264] 	lookupStabilitySig:mean 	0.91806083746875
scalar Network.dyn_peer[264] 	lookupHopsSig:mean 	18.666666666667
scalar Network.dyn_peer[265] 	lookupTimeSig:mean 	1.65
scalar Network.dyn_peer[265] 	lookupStabilitySig:mean 	0.52314599199841
scalar Network.dyn_peer[265] 	lookupHopsSig:mean 	15.666666666667
scalar Network.dyn_peer[266] 	lookupTimeSig:mean 	2.6875
scalar Network.dyn_peer[266] 	lookupStabilitySig:mean 	0.96073188085575
scalar Network.dyn_peer[266] 	lookupHopsSig:mean 	26
scalar Network.dyn_peer[267] 	lookupTimeSig:mean 	1.4285714285714
scalar Network.dyn_peer[267] 	lookupStabilitySig:mean 	0.6899578309884
scalar Network.dyn_peer[267] 	lookupHopsSig:mean 	13.428571428571
scalar Network.dyn_peer[268] 	lookupTimeSig:mean 	1.9333333333333
scalar Network.dyn_peer[268] 	lookupStabilitySig:mean 	0.62457002451022
scalar Network.dyn_peer[268] 	lookupHopsSig:mean 	18.666666666667
scalar Network.dyn_peer[269] 	lookupTimeSig:mean 	2.1428571428571
scalar Network.dyn_peer[269] 	lookupStabilitySig:mean 	0.92769919442279
scalar Network.dyn_peer[269] 	lookupHopsSig:mean 	20.571428571429
scalar Network.dyn_peer[270] 	lookupTimeSig:mean 	1.92
scalar Network.dyn_peer[270] 	lookupStabilitySig:mean 	0.62466962039471
scalar Network.dyn_peer[270] 	lookupHopsSig:mean 	18.4
scalar Network.dyn_peer[271] 	lookupTimeSig:mean 	2.7142857142857
scalar Network.dyn_peer[271] 	lookupStabilitySig:mean 	0.94333080149123
scalar Network.dyn_peer[271] 	lookupHopsSig:mean 	26.285714285714
scalar Network.dyn_peer[272] 	lookupTimeSig:mean 	1.5375
scalar Network.dyn_peer[272] 	lookupStabilitySig:mean 	0.77558873477392
scalar Network.dyn_peer[272] 	lookupHopsSig:mean 	14.5
scalar Network.dyn_peer[273] 	lookupTimeSig:mean 	1.3833333333333
scalar Network.dyn_peer[273] 	lookupStabilitySig:mean 	0.62704546190798
scalar Network.dyn_peer[273] 	lookupHopsSig:mean 	13
scalar Network.dyn_peer[274] 	lookupTimeSig:mean 	3.15
scalar Network.dyn_peer[274] 	lookupStabilitySig:mean 	0.88021033909172
scalar Network.dyn_peer[274] 	lookupHopsSig:mean 	30.75
scalar Network.dyn_peer[275] 	lookupTimeSig:mean 	2.7875
scalar Network.dyn_peer[275] 	lookupStabilitySig:mean 	0.95329658151604
scalar Network.dyn_peer[275] 	lookupHopsSig:mean 	27
scalar Network.dyn_peer[276] 	lookupTimeSig:mean 	1.8
scalar Network.dyn_peer[276] 	lookupStabilitySig:mean 	0.75083088262805
scalar Network.dyn_peer[276] 	lookupHopsSig:mean 	17.142857142857
scalar Network.dyn_peer[277] 	lookupTimeSig:mean 	1.525
scalar Network.dyn_peer[277] 	lookupStabilitySig:mean 	0.33521162904799
scalar Network.dyn_peer[277] 	lookupHopsSig:mean 	14.5
scalar Network.dyn_peer[278] 	lookupTimeSig:mean 	1.26
scalar Network.dyn_peer[278] 	lookupStabilitySig:mean 	0.48632266074419
scalar Network.dyn_peer[278] 	lookupHopsSig:mean 	11.8
scalar Network.dyn_peer[279] 	lookupTimeSig:mean 	1.9714285714286
scalar Network.dyn_peer[279] 	lookupStabilitySig:mean 	0.9288758124624
scalar Network.dyn_peer[279] 	lookupHopsSig:mean 	18.857142857143
scalar Network.dyn_peer[280] 	lookupTimeSig:mean 	0.96
scalar Network.dyn_peer[280] 	lookupStabilitySig:mean 	0.46219288930297
scalar Network.dyn_peer[280] 	lookupHopsSig:mean 	8.8
scalar Network.dyn_peer[281] 	lookupTimeSig:mean 	3.25
scalar Network.dyn_peer[281] 	lookupStabilitySig:mean 	0.82512951479293
scalar Network.dyn_peer[281] 	lookupHopsSig:mean 	31.75
scalar Network.dyn_peer[282] 	lookupTimeSig:mean 	1.9230769230769
scalar Network.dyn_peer[282] 	lookupStabilitySig:mean 	0.96658408681217
scalar Network.dyn_peer[282] 	lookupHopsSig:mean 	18.307692307692
scalar Network.dyn_peer[283] 	lookupTimeSig:mean 	2.26
scalar Network.dyn_peer[283] 	lookupStabilitySig:mean 	0.72620833590627
scalar Network.dyn_peer[283] 	lookupHopsSig:mean 	21.8
scalar Network.dyn_peer[284] 	lookupTimeSig:mean 	2.4
scalar Network.dyn_peer[284] 	lookupStabilitySig:mean 	0.46712961792946
scalar Network.dyn_peer[284] 	lookupHopsSig:mean 	23.333333333333
scalar Network.dyn_peer[285] 	lookupTimeSig:mean 	2.62
scalar Network.dyn_peer[285] 	lookupStabilitySig:mean 	0.49161712378263
scalar Network.dyn_peer[285] 	lookupHopsSig:mean 	25.4
scalar Network.dyn_peer[286] 	lookupTimeSig:mean 	1.525
scalar Network.dyn_peer[286] 	lookupStabilitySig:mean 	0.26762065663934
scalar Network.dyn_peer[286] 	lookupHopsSig:mean 	14.5
scalar Network.dyn_peer[287] 	lookupTimeSig:mean 	1.5636363636364
scalar Network.dyn_peer[287] 	lookupStabilitySig:mean 	0.92946639220992
scalar Network.dyn_peer[287] 	lookupHopsSig:mean 	14.727272727273
scalar Network.dyn_peer[288] 	lookupTimeSig:mean 	2.3666666666667
scalar Network.dyn_peer[288] 	lookupStabilitySig:mean 	0.39249639709791
scalar Network.dyn_peer[288] 	lookupHopsSig:mean 	23
scalar Network.dyn_peer[289] 	lookupTimeSig:mean 	2.4428571428571
scalar Network.dyn_peer[289] 	lookupStabilitySig:mean 	0.93027531581798
scalar Network.dyn_peer[289] 	lookupHopsSig:mean 	23.571428571429
scalar Network.dyn_peer[290] 	lookupTimeSig:mean 	2.4571428571429
scalar Network.dyn_peer[290] 	lookupStabilitySig:mean 	0.92798041379345
scalar Network.dyn_peer[290] 	lookupHopsSig:mean 	23.714285714286
scalar Network.dyn_peer[291] 	lookupTimeSig:mean 	1.4
scalar Network.dyn_peer[291] 	lookupStabilitySig:mean 	0.22275807522237
scalar Network.dyn_peer[291] 	lookupHopsSig:mean 	13.25
scalar Network.dyn_peer[292] 	lookupTimeSig:mean 	1.6769230769231
scalar Network.dyn_peer[292] 	lookupStabilitySig:mean 	0.86235595483763
scalar Network.dyn_peer[292] 	lookupHopsSig:mean 	15.846153846154
scalar Network.dyn_peer[293] 	lookupTimeSig:mean 	1.7
scalar Network.dyn_peer[293] 	lookupStabilitySig:mean 	0.15833334128062
scalar Network.dyn_peer[293] 	lookupHopsSig:mean 	16.333333333333
scalar Network.dyn_peer[294] 	lookupTimeSig:mean 	2.3666666666667
scalar Network.dyn_peer[294] 	lookupStabilitySig:mean 	0.87435731881609
scalar Network.dyn_peer[294] 	lookupHopsSig:mean 	22.833333333333
scalar Network.dyn_peer[295] 	lookupTimeSig:mean 	4.3
scalar Network.dyn_peer[295] 	lookupStabilitySig:mean 	0.90841732826084
scalar Network.dyn_peer[295] 	lookupHopsSig:mean 	42.25
scalar Network.dyn_peer[296] 	lookupTimeSig:mean 	1.66
scalar Network.dyn_peer[296] 	lookupStabilitySig:mean 	0.92162440950051
scalar Network.dyn_peer[296] 	lookupHopsSig:mean 	15.7
scalar Network.dyn_peer[297] 	lookupTimeSig:mean 	1.78
scalar Network.dyn_peer[297] 	lookupStabilitySig:mean 	0.91386257647537
scalar Network.dyn_peer[297] 	lookupHopsSig:mean 	16.9
scalar Network.dyn_peer[298] 	lookupTimeSig:mean 	1.63
scalar Network.dyn_peer[298] 	lookupStabilitySig:mean 	0.95400638235733
scalar Network.dyn_peer[298] 	lookupHopsSig:mean 	15.4
scalar Network.dyn_peer[299] 	lookupTimeSig:mean 	2.5
scalar Network.dyn_peer[299] 	lookupStabilitySig:mean 	0.69434343092144
scalar Network.dyn_peer[299] 	lookupHopsSig:mean 	24.25
scalar Network.dyn_peer[300] 	lookupTimeSig:mean 	1.15
scalar Network.dyn_peer[300] 	lookupStabilitySig:mean 	0.61574332074573
scalar Network.dyn_peer[300] 	lookupHopsSig:mean 	10.666666666667
scalar Network.dyn_peer[301] 	lookupTimeSig:mean 	1.66
scalar Network.dyn_peer[301] 	lookupStabilitySig:mean 	0.76564771812409
scalar Network.dyn_peer[301] 	lookupHopsSig:mean 	15.8
scalar Network.dyn_peer[302] 	lookupTimeSig:mean 	2.175
scalar Network.dyn_peer[302] 	lookupStabilitySig:mean 	0.95208548748633
scalar Network.dyn_peer[302] 	lookupHopsSig:mean 	20.875
scalar Network.dyn_peer[303] 	lookupTimeSig:mean 	1.7
scalar Network.dyn_peer[303] 	lookupStabilitySig:mean 	0.93068503495306
scalar Network.dyn_peer[303] 	lookupHopsSig:mean 	16.166666666667
scalar Network.dyn_peer[304] 	lookupTimeSig:mean 	1.5666666666667
scalar Network.dyn_peer[304] 	lookupStabilitySig:mean 	0.80578356795013
scalar Network.dyn_peer[304] 	lookupHopsSig:mean 	14.833333333333
scalar Network.dyn_peer[305] 	lookupTimeSig:mean 	1.86
scalar Network.dyn_peer[305] 	lookupStabilitySig:mean 	0.92567312680185
scalar Network.dyn_peer[305] 	lookupHopsSig:mean 	17.7
scalar Network.dyn_peer[306] 	lookupTimeSig:mean 	1.28
scalar Network.dyn_peer[306] 	lookupStabilitySig:mean 	0.78376729320735
scalar Network.dyn_peer[306] 	lookupHopsSig:mean 	11.9
scalar Network.dyn_peer[307] 	lookupTimeSig:mean 	2.1
scalar Network.dyn_peer[307] 	lookupStabilitySig:mean 	0.85496483929455
scalar Network.dyn_peer[307] 	lookupHopsSig:mean 	20.25
scalar Network.dyn_peer[308] 	lookupTimeSig:mean 	1.2
scalar Network.dyn_peer[308] 	lookupStabilitySig:mean 	0.76509585790336
scalar Network.dyn_peer[308] 	lookupHopsSig:mean 	11.166666666667
scalar Network.dyn_peer[309] 	lookupTimeSig:mean 	3.4333333333333
scalar Network.dyn_peer[309] 	lookupStabilitySig:mean 	0.50215182205041
scalar Network.dyn_peer[309] 	lookupHopsSig:mean 	33.666666666667
scalar Network.dyn_peer[310] 	lookupTimeSig:mean 	4.2
scalar Network.dyn_peer[310] 	lookupStabilitySig:mean 	0.7864653300494
scalar Network.dyn_peer[310] 	lookupHopsSig:mean 	41.5
scalar Network.dyn_peer[311] 	lookupTimeSig:mean 	2
scalar Network.dyn_peer[311] 	lookupStabilitySig:mean 	0.75805327761918
scalar Network.dyn_peer[311] 	lookupHopsSig:mean 	19.25
scalar Network.dyn_peer[312] 	lookupTimeSig:mean 	2.75
scalar Network.dyn_peer[312] 	lookupStabilitySig:mean 	0.89124842407182
scalar Network.dyn_peer[312] 	lookupHopsSig:mean 	26.75
scalar Network.dyn_peer[313] 	lookupTimeSig:mean 	2.0444444444444
scalar Network.dyn_peer[313] 	lookupStabilitySig:mean 	0.80781821223597
scalar Network.dyn_peer[313] 	lookupHopsSig:mean 	19.555555555556
scalar Network.dyn_peer[314] 	lookupTimeSig:mean 	2.15
scalar Network.dyn_peer[314] 	lookupStabilitySig:mean 	0.34666666388512
scalar Network.dyn_peer[314] 	lookupHopsSig:mean 	21
scalar Network.dyn_peer[315] 	lookupTimeSig:mean 	3.6
scalar Network.dyn_peer[315] 	lookupStabilitySig:mean 	0.91731515172869
scalar Network.dyn_peer[315] 	lookupHopsSig:mean 	35.2
scalar Network.dyn_peer[316] 	lookupTimeSig:mean 	2.2
scalar Network.dyn_peer[316] 	lookupStabilitySig:mean 	0.42347105406225
scalar Network.dyn_peer[316] 	lookupHopsSig:mean 	21.25
scalar Network.dyn_peer[317] 	lookupTimeSig:mean 	2.6
scalar Network.dyn_peer[317] 	lookupStabilitySig:mean 	0.89744505509734
scalar Network.dyn_peer[317] 	lookupHopsSig:mean 	25.2
scalar Network.dyn_peer[318] 	lookupTimeSig:mean 	4.95
scalar Network.dyn_peer[318] 	lookupStabilitySig:mean 	0.91817390266806
scalar Network.dyn_peer[318] 	lookupHopsSig:mean 	48.75
scalar Network.dyn_peer[319] 	lookupTimeSig:mean 	2.7666666666667
scalar Network.dyn_peer[319] 	lookupStabilitySig:mean 	0.76720316087206
scalar Network.dyn_peer[319] 	lookupHopsSig:mean 	27
scalar Network.dyn_peer[320] 	lookupTimeSig:mean 	2
scalar Network.dyn_peer[320] 	lookupStabilitySig:mean 	0.94356987753417
scalar Network.dyn_peer[320] 	lookupHopsSig:mean 	19.125
scalar Network.dyn_peer[321] 	lookupTimeSig:mean 	2.325
scalar Network.dyn_peer[321] 	lookupStabilitySig:mean 	0.53464929945767
scalar Network.dyn_peer[321] 	lookupHopsSig:mean 	22.5
scalar Network.dyn_peer[322] 	lookupTimeSig:mean 	1.6833333333333
scalar Network.dyn_peer[322] 	lookupStabilitySig:mean 	0.77184790768661
scalar Network.dyn_peer[322] 	lookupHopsSig:mean 	15.916666666667
scalar Network.dyn_peer[323] 	lookupTimeSig:mean 	3.8
scalar Network.dyn_peer[323] 	lookupStabilitySig:mean 	0.67994355037808
scalar Network.dyn_peer[323] 	lookupHopsSig:mean 	37.5
scalar Network.dyn_peer[324] 	lookupTimeSig:mean 	1.7333333333333
scalar Network.dyn_peer[324] 	lookupStabilitySig:mean 	0.69012864679098
scalar Network.dyn_peer[324] 	lookupHopsSig:mean 	16.5
scalar Network.dyn_peer[325] 	lookupTimeSig:mean 	1.95
scalar Network.dyn_peer[325] 	lookupStabilitySig:mean 	0.75503584463149
scalar Network.dyn_peer[325] 	lookupHopsSig:mean 	18.75
scalar Network.dyn_peer[326] 	lookupTimeSig:mean 	1.52
scalar Network.dyn_peer[326] 	lookupStabilitySig:mean 	0.56737724673003
scalar Network.dyn_peer[326] 	lookupHopsSig:mean 	14.4
scalar Network.dyn_peer[327] 	lookupTimeSig:mean 	1.9
scalar Network.dyn_peer[327] 	lookupStabilitySig:mean 	0.80738241093544
scalar Network.dyn_peer[327] 	lookupHopsSig:mean 	18.111111111111
scalar Network.dyn_peer[328] 	lookupTimeSig:mean 	1.84
scalar Network.dyn_peer[328] 	lookupStabilitySig:mean 	0.60059241503477
scalar Network.dyn_peer[328] 	lookupHopsSig:mean 	17.6
scalar Network.dyn_peer[329] 	lookupTimeSig:mean 	2.66
scalar Network.dyn_peer[329] 	lookupStabilitySig:mean 	0.91946710199118
scalar Network.dyn_peer[329] 	lookupHopsSig:mean 	25.8
scalar Network.dyn_peer[330] 	lookupTimeSig:mean 	2.98
scalar Network.dyn_peer[330] 	lookupStabilitySig:mean 	0.91635702997446
scalar Network.dyn_peer[330] 	lookupHopsSig:mean 	29
scalar Network.dyn_peer[331] 	lookupTimeSig:mean 	1.5
scalar Network.dyn_peer[331] 	lookupStabilitySig:mean 	0.67566458818813
scalar Network.dyn_peer[331] 	lookupHopsSig:mean 	14.111111111111
scalar Network.dyn_peer[332] 	lookupTimeSig:mean 	1.7666666666667
scalar Network.dyn_peer[332] 	lookupStabilitySig:mean 	0.52668405820926
scalar Network.dyn_peer[332] 	lookupHopsSig:mean 	17
scalar Network.dyn_peer[333] 	lookupTimeSig:mean 	1.55
scalar Network.dyn_peer[333] 	lookupStabilitySig:mean 	0.88613338144496
scalar Network.dyn_peer[333] 	lookupHopsSig:mean 	14.6
scalar Network.dyn_peer[334] 	lookupTimeSig:mean 	2.3333333333333
scalar Network.dyn_peer[334] 	lookupStabilitySig:mean 	0.94769914489653
scalar Network.dyn_peer[334] 	lookupHopsSig:mean 	22.444444444444
scalar Network.dyn_peer[335] 	lookupTimeSig:mean 	2.3
scalar Network.dyn_peer[335] 	lookupStabilitySig:mean 	0.95077601086814
scalar Network.dyn_peer[335] 	lookupHopsSig:mean 	22.125
scalar Network.dyn_peer[336] 	lookupTimeSig:mean 	1.28
scalar Network.dyn_peer[336] 	lookupStabilitySig:mean 	0.45365257263184
scalar Network.dyn_peer[336] 	lookupHopsSig:mean 	12
scalar Network.dyn_peer[337] 	lookupTimeSig:mean 	3.56
scalar Network.dyn_peer[337] 	lookupStabilitySig:mean 	0.89721301561221
scalar Network.dyn_peer[337] 	lookupHopsSig:mean 	34.8
scalar Network.dyn_peer[338] 	lookupTimeSig:mean 	3.1
scalar Network.dyn_peer[338] 	lookupStabilitySig:mean 	0.1879214271903
scalar Network.dyn_peer[338] 	lookupHopsSig:mean 	30.333333333333
scalar Network.dyn_peer[339] 	lookupTimeSig:mean 	1.89
scalar Network.dyn_peer[339] 	lookupStabilitySig:mean 	0.94176719444804
scalar Network.dyn_peer[339] 	lookupHopsSig:mean 	18
scalar Network.dyn_peer[340] 	lookupTimeSig:mean 	2.4166666666667
scalar Network.dyn_peer[340] 	lookupStabilitySig:mean 	0.90300482107947
scalar Network.dyn_peer[340] 	lookupHopsSig:mean 	23.333333333333
scalar Network.dyn_peer[341] 	lookupTimeSig:mean 	1.7857142857143
scalar Network.dyn_peer[341] 	lookupStabilitySig:mean 	0.71365480810138
scalar Network.dyn_peer[341] 	lookupHopsSig:mean 	17
scalar Network.dyn_peer[342] 	lookupTimeSig:mean 	2.625
scalar Network.dyn_peer[342] 	lookupStabilitySig:mean 	0.89486511284485
scalar Network.dyn_peer[342] 	lookupHopsSig:mean 	25.5
scalar Network.dyn_peer[343] 	lookupTimeSig:mean 	3.3333333333333
scalar Network.dyn_peer[343] 	lookupStabilitySig:mean 	0.84605343391498
scalar Network.dyn_peer[343] 	lookupHopsSig:mean 	32.666666666667
scalar Network.dyn_peer[344] 	lookupTimeSig:mean 	1.5888888888889
scalar Network.dyn_peer[344] 	lookupStabilitySig:mean 	0.8011533876674
scalar Network.dyn_peer[344] 	lookupHopsSig:mean 	15
scalar Network.dyn_peer[345] 	lookupTimeSig:mean 	2.4
scalar Network.dyn_peer[345] 	lookupStabilitySig:mean 	0.84261202222357
scalar Network.dyn_peer[345] 	lookupHopsSig:mean 	23.166666666667
scalar Network.dyn_peer[346] 	lookupTimeSig:mean 	1.9
scalar Network.dyn_peer[346] 	lookupStabilitySig:mean 	0.33333333333333
scalar Network.dyn_peer[346] 	lookupHopsSig:mean 	18.333333333333
scalar Network.dyn_peer[347] 	lookupTimeSig:mean 	5.25
scalar Network.dyn_peer[347] 	lookupStabilitySig:mean 	0.85971889458597
scalar Network.dyn_peer[347] 	lookupHopsSig:mean 	51.75
scalar Network.dyn_peer[348] 	lookupTimeSig:mean 	1.6875
scalar Network.dyn_peer[348] 	lookupStabilitySig:mean 	0.89761294139316
scalar Network.dyn_peer[348] 	lookupHopsSig:mean 	16
scalar Network.dyn_peer[349] 	lookupTimeSig:mean 	1.8285714285714
scalar Network.dyn_peer[349] 	lookupStabilitySig:mean 	0.82324701494404
scalar Network.dyn_peer[349] 	lookupHopsSig:mean 	17.428571428571
scalar Network.dyn_peer[350] 	lookupTimeSig:mean 	3.45
scalar Network.dyn_peer[350] 	lookupStabilitySig:mean 	0.59481130540371
scalar Network.dyn_peer[350] 	lookupHopsSig:mean 	34
scalar Network.dyn_peer[351] 	lookupTimeSig:mean 	1.44
scalar Network.dyn_peer[351] 	lookupStabilitySig:mean 	0.85633096136153
scalar Network.dyn_peer[351] 	lookupHopsSig:mean 	13.6
scalar Network.dyn_peer[352] 	lookupTimeSig:mean 	1.9
scalar Network.dyn_peer[352] 	lookupStabilitySig:mean 	0.53939259424806
scalar Network.dyn_peer[352] 	lookupHopsSig:mean 	18.333333333333
scalar Network.dyn_peer[353] 	lookupTimeSig:mean 	2.4142857142857
scalar Network.dyn_peer[353] 	lookupStabilitySig:mean 	0.94032181200704
scalar Network.dyn_peer[353] 	lookupHopsSig:mean 	23.285714285714
scalar Network.dyn_peer[354] 	lookupTimeSig:mean 	1.8333333333333
scalar Network.dyn_peer[354] 	lookupStabilitySig:mean 	0.86187760873387
scalar Network.dyn_peer[354] 	lookupHopsSig:mean 	17.5
scalar Network.dyn_peer[355] 	lookupTimeSig:mean 	0.95
scalar Network.dyn_peer[355] 	lookupStabilitySig:mean 	-0.30769231915474
scalar Network.dyn_peer[355] 	lookupHopsSig:mean 	9
scalar Network.dyn_peer[356] 	lookupTimeSig:mean 	1.95
scalar Network.dyn_peer[356] 	lookupStabilitySig:mean 	0.58948862552643
scalar Network.dyn_peer[356] 	lookupHopsSig:mean 	19
scalar Network.dyn_peer[357] 	lookupTimeSig:mean 	2.5375
scalar Network.dyn_peer[357] 	lookupStabilitySig:mean 	0.95693065720843
scalar Network.dyn_peer[357] 	lookupHopsSig:mean 	24.5
scalar Network.dyn_peer[358] 	lookupTimeSig:mean 	3.9
scalar Network.dyn_peer[358] 	lookupStabilitySig:mean 	0.84531347205242
scalar Network.dyn_peer[358] 	lookupHopsSig:mean 	38.333333333333
scalar Network.dyn_peer[359] 	lookupTimeSig:mean 	2.4875
scalar Network.dyn_peer[359] 	lookupStabilitySig:mean 	0.89838552349829
scalar Network.dyn_peer[359] 	lookupHopsSig:mean 	24
scalar Network.dyn_peer[360] 	lookupTimeSig:mean 	1.7
scalar Network.dyn_peer[360] 	lookupStabilitySig:mean 	0.85683193119864
scalar Network.dyn_peer[360] 	lookupHopsSig:mean 	16.166666666667
scalar Network.dyn_peer[361] 	lookupTimeSig:mean 	2.5
scalar Network.dyn_peer[361] 	lookupStabilitySig:mean 	0.047222211956978
scalar Network.dyn_peer[361] 	lookupHopsSig:mean 	24.5
scalar Network.dyn_peer[362] 	lookupTimeSig:mean 	1.3666666666667
scalar Network.dyn_peer[362] 	lookupStabilitySig:mean 	0.42997987568378
scalar Network.dyn_peer[362] 	lookupHopsSig:mean 	13
scalar Network.dyn_peer[363] 	lookupTimeSig:mean 	1.41
scalar Network.dyn_peer[363] 	lookupStabilitySig:mean 	0.90978869372047
scalar Network.dyn_peer[363] 	lookupHopsSig:mean 	13.2
scalar Network.dyn_peer[364] 	lookupTimeSig:mean 	1.8583333333333
scalar Network.dyn_peer[364] 	lookupStabilitySig:mean 	0.96306393753427
scalar Network.dyn_peer[364] 	lookupHopsSig:mean 	17.666666666667
scalar Network.dyn_peer[365] 	lookupTimeSig:mean 	1.4142857142857
scalar Network.dyn_peer[365] 	lookupStabilitySig:mean 	0.95710767291686
scalar Network.dyn_peer[365] 	lookupHopsSig:mean 	13.214285714286
scalar Network.dyn_peer[366] 	lookupTimeSig:mean 	1.7666666666667
scalar Network.dyn_peer[366] 	lookupStabilitySig:mean 	0.71120371141781
scalar Network.dyn_peer[366] 	lookupHopsSig:mean 	16.833333333333
scalar Network.dyn_peer[367] 	lookupTimeSig:mean 	2.925
scalar Network.dyn_peer[367] 	lookupStabilitySig:mean 	0.8746488140896
scalar Network.dyn_peer[367] 	lookupHopsSig:mean 	28.5
scalar Network.dyn_peer[368] 	lookupTimeSig:mean 	1.1142857142857
scalar Network.dyn_peer[368] 	lookupStabilitySig:mean 	0.68351792011942
scalar Network.dyn_peer[368] 	lookupHopsSig:mean 	10.285714285714
scalar Network.dyn_peer[369] 	lookupTimeSig:mean 	2.6333333333333
scalar Network.dyn_peer[369] 	lookupStabilitySig:mean 	0.078370566169421
scalar Network.dyn_peer[369] 	lookupHopsSig:mean 	25.666666666667
scalar Network.dyn_peer[370] 	lookupTimeSig:mean 	2.5333333333333
scalar Network.dyn_peer[370] 	lookupStabilitySig:mean 	0.59473334811628
scalar Network.dyn_peer[370] 	lookupHopsSig:mean 	24.666666666667
scalar Network.dyn_peer[371] 	lookupTimeSig:mean 	1.32
scalar Network.dyn_peer[371] 	lookupStabilitySig:mean 	0.88530182680115
scalar Network.dyn_peer[371] 	lookupHopsSig:mean 	12.3
scalar Network.dyn_peer[372] 	lookupTimeSig:mean 	2.55
scalar Network.dyn_peer[372] 	lookupStabilitySig:mean 	0.85843184489446
scalar Network.dyn_peer[372] 	lookupHopsSig:mean 	24.666666666667
scalar Network.dyn_peer[373] 	lookupTimeSig:mean 	3.85
scalar Network.dyn_peer[373] 	lookupStabilitySig:mean 	0.89391812775284
scalar Network.dyn_peer[373] 	lookupHopsSig:mean 	37.75
scalar Network.dyn_peer[374] 	lookupTimeSig:mean 	2.1333333333333
scalar Network.dyn_peer[374] 	lookupStabilitySig:mean 	0.90057910544177
scalar Network.dyn_peer[374] 	lookupHopsSig:mean 	20.5
scalar Network.dyn_peer[375] 	lookupTimeSig:mean 	2.2571428571429
scalar Network.dyn_peer[375] 	lookupStabilitySig:mean 	0.90950211283884
scalar Network.dyn_peer[375] 	lookupHopsSig:mean 	21.714285714286
scalar Network.dyn_peer[376] 	lookupTimeSig:mean 	2.1222222222222
scalar Network.dyn_peer[376] 	lookupStabilitySig:mean 	0.95685408621406
scalar Network.dyn_peer[376] 	lookupHopsSig:mean 	20.333333333333
scalar Network.dyn_peer[377] 	lookupTimeSig:mean 	2.7333333333333
scalar Network.dyn_peer[377] 	lookupStabilitySig:mean 	0.68022195498149
scalar Network.dyn_peer[377] 	lookupHopsSig:mean 	26.666666666667
scalar Network.dyn_peer[378] 	lookupTimeSig:mean 	1.275
scalar Network.dyn_peer[378] 	lookupStabilitySig:mean 	0.34353924635798
scalar Network.dyn_peer[378] 	lookupHopsSig:mean 	12
scalar Network.dyn_peer[379] 	lookupTimeSig:mean 	3.05
scalar Network.dyn_peer[379] 	lookupStabilitySig:mean 	0.51985808601603
scalar Network.dyn_peer[379] 	lookupHopsSig:mean 	29.75
scalar Network.dyn_peer[380] 	lookupTimeSig:mean 	2.12
scalar Network.dyn_peer[380] 	lookupStabilitySig:mean 	0.64926129207015
scalar Network.dyn_peer[380] 	lookupHopsSig:mean 	20.4
scalar Network.dyn_peer[381] 	lookupTimeSig:mean 	1.5571428571429
scalar Network.dyn_peer[381] 	lookupStabilitySig:mean 	0.89055444167129
scalar Network.dyn_peer[381] 	lookupHopsSig:mean 	14.714285714286
scalar Network.dyn_peer[382] 	lookupTimeSig:mean 	1.05
scalar Network.dyn_peer[382] 	lookupStabilitySig:mean 	0.3545545488596
scalar Network.dyn_peer[382] 	lookupHopsSig:mean 	9.75
scalar Network.dyn_peer[383] 	lookupTimeSig:mean 	1.95
scalar Network.dyn_peer[383] 	lookupStabilitySig:mean 	0.52989728065828
scalar Network.dyn_peer[383] 	lookupHopsSig:mean 	18.666666666667
scalar Network.dyn_peer[384] 	lookupTimeSig:mean 	1.7181818181818
scalar Network.dyn_peer[384] 	lookupStabilitySig:mean 	0.89582871417092
scalar Network.dyn_peer[384] 	lookupHopsSig:mean 	16.272727272727
scalar Network.dyn_peer[385] 	lookupTimeSig:mean 	2.31
scalar Network.dyn_peer[385] 	lookupStabilitySig:mean 	0.93107803724706
scalar Network.dyn_peer[385] 	lookupHopsSig:mean 	22.2
scalar Network.dyn_peer[386] 	lookupTimeSig:mean 	1.5555555555556
scalar Network.dyn_peer[386] 	lookupStabilitySig:mean 	0.93340965970937
scalar Network.dyn_peer[386] 	lookupHopsSig:mean 	14.666666666667
scalar Network.dyn_peer[387] 	lookupTimeSig:mean 	1.1125
scalar Network.dyn_peer[387] 	lookupStabilitySig:mean 	0.74491985864006
scalar Network.dyn_peer[387] 	lookupHopsSig:mean 	10.25
scalar Network.dyn_peer[388] 	lookupTimeSig:mean 	2.3
scalar Network.dyn_peer[388] 	lookupStabilitySig:mean 	0.50002509355545
scalar Network.dyn_peer[388] 	lookupHopsSig:mean 	22.333333333333
scalar Network.dyn_peer[389] 	lookupTimeSig:mean 	2.2625
scalar Network.dyn_peer[389] 	lookupStabilitySig:mean 	0.78545847022906
scalar Network.dyn_peer[389] 	lookupHopsSig:mean 	21.75
scalar Network.dyn_peer[390] 	lookupTimeSig:mean 	2.6333333333333
scalar Network.dyn_peer[390] 	lookupStabilitySig:mean 	0.92181116264934
scalar Network.dyn_peer[390] 	lookupHopsSig:mean 	25.5
scalar Network.dyn_peer[391] 	lookupTimeSig:mean 	3.025
scalar Network.dyn_peer[391] 	lookupStabilitySig:mean 	0.8282307353802
scalar Network.dyn_peer[391] 	lookupHopsSig:mean 	29.5
scalar Network.dyn_peer[392] 	lookupTimeSig:mean 	1.4888888888889
scalar Network.dyn_peer[392] 	lookupStabilitySig:mean 	0.78634119333906
scalar Network.dyn_peer[392] 	lookupHopsSig:mean 	14
scalar Network.dyn_peer[393] 	lookupTimeSig:mean 	1.7272727272727
scalar Network.dyn_peer[393] 	lookupStabilitySig:mean 	0.88810722669587
scalar Network.dyn_peer[393] 	lookupHopsSig:mean 	16.363636363636
scalar Network.dyn_peer[394] 	lookupTimeSig:mean 	2.1666666666667
scalar Network.dyn_peer[394] 	lookupStabilitySig:mean 	0.666630598406
scalar Network.dyn_peer[394] 	lookupHopsSig:mean 	21
scalar Network.dyn_peer[395] 	lookupTimeSig:mean 	1.625
scalar Network.dyn_peer[395] 	lookupStabilitySig:mean 	0.71677983179688
scalar Network.dyn_peer[395] 	lookupHopsSig:mean 	15.5
scalar Network.dyn_peer[396] 	lookupTimeSig:mean 	1.7857142857143
scalar Network.dyn_peer[396] 	lookupStabilitySig:mean 	0.88993613839349
scalar Network.dyn_peer[396] 	lookupHopsSig:mean 	17
scalar Network.dyn_peer[397] 	lookupTimeSig:mean 	1.6333333333333
scalar Network.dyn_peer[397] 	lookupStabilitySig:mean 	0.53199344625076
scalar Network.dyn_peer[397] 	lookupHopsSig:mean 	15.666666666667
scalar Network.dyn_peer[398] 	lookupTimeSig:mean 	1.1
scalar Network.dyn_peer[398] 	lookupStabilitySig:mean 	0.029061764478683
scalar Network.dyn_peer[398] 	lookupHopsSig:mean 	10.333333333333
scalar Network.dyn_peer[399] 	lookupTimeSig:mean 	1.5
scalar Network.dyn_peer[399] 	lookupStabilitySig:mean 	0.5015678498894
scalar Network.dyn_peer[399] 	lookupHopsSig:mean 	14.25
scalar Network.dyn_peer[400] 	lookupTimeSig:mean 	2.45
scalar Network.dyn_peer[400] 	lookupStabilitySig:mean 	0.67403846234083
scalar Network.dyn_peer[400] 	lookupHopsSig:mean 	24
scalar Network.dyn_peer[401] 	lookupTimeSig:mean 	2.45
scalar Network.dyn_peer[401] 	lookupStabilitySig:mean 	0.31017212942243
scalar Network.dyn_peer[401] 	lookupHopsSig:mean 	23.75
scalar Network.dyn_peer[402] 	lookupTimeSig:mean 	1.2428571428571
scalar Network.dyn_peer[402] 	lookupStabilitySig:mean 	0.76649628167174
scalar Network.dyn_peer[402] 	lookupHopsSig:mean 	11.5
scalar Network.dyn_peer[403] 	lookupTimeSig:mean 	2.2428571428571
scalar Network.dyn_peer[403] 	lookupStabilitySig:mean 	0.72995014914445
scalar Network.dyn_peer[403] 	lookupHopsSig:mean 	21.571428571429
scalar Network.dyn_peer[404] 	lookupTimeSig:mean 	1.675
scalar Network.dyn_peer[404] 	lookupStabilitySig:mean 	0.54735006205738
scalar Network.dyn_peer[404] 	lookupHopsSig:mean 	16
scalar Network.dyn_peer[405] 	lookupTimeSig:mean 	2.9625
scalar Network.dyn_peer[405] 	lookupStabilitySig:mean 	0.93883157765958
scalar Network.dyn_peer[405] 	lookupHopsSig:mean 	28.75
scalar Network.dyn_peer[406] 	lookupTimeSig:mean 	2.72
scalar Network.dyn_peer[406] 	lookupStabilitySig:mean 	0.76481007412076
scalar Network.dyn_peer[406] 	lookupHopsSig:mean 	26.4
scalar Network.dyn_peer[407] 	lookupTimeSig:mean 	3.08
scalar Network.dyn_peer[407] 	lookupStabilitySig:mean 	0.92882667984813
scalar Network.dyn_peer[407] 	lookupHopsSig:mean 	30
scalar Network.dyn_peer[408] 	lookupTimeSig:mean 	1.7555555555556
scalar Network.dyn_peer[408] 	lookupStabilitySig:mean 	0.90646729297522
scalar Network.dyn_peer[408] 	lookupHopsSig:mean 	16.666666666667
scalar Network.dyn_peer[409] 	lookupTimeSig:mean 	2.375
scalar Network.dyn_peer[409] 	lookupStabilitySig:mean 	0.64555214997381
scalar Network.dyn_peer[409] 	lookupHopsSig:mean 	23
scalar Network.dyn_peer[410] 	lookupTimeSig:mean 	2.3142857142857
scalar Network.dyn_peer[410] 	lookupStabilitySig:mean 	0.9302729362888
scalar Network.dyn_peer[410] 	lookupHopsSig:mean 	22.285714285714
scalar Network.dyn_peer[411] 	lookupTimeSig:mean 	1.75
scalar Network.dyn_peer[411] 	lookupStabilitySig:mean 	0.64369573583826
scalar Network.dyn_peer[411] 	lookupHopsSig:mean 	16.75
scalar Network.dyn_peer[412] 	lookupTimeSig:mean 	6.45
scalar Network.dyn_peer[412] 	lookupStabilitySig:mean 	0.80422770231962
scalar Network.dyn_peer[412] 	lookupHopsSig:mean 	64
scalar Network.dyn_peer[413] 	lookupTimeSig:mean 	3.1714285714286
scalar Network.dyn_peer[413] 	lookupStabilitySig:mean 	0.91815367420869
scalar Network.dyn_peer[413] 	lookupHopsSig:mean 	30.857142857143
scalar Network.dyn_peer[414] 	lookupTimeSig:mean 	1.6125
scalar Network.dyn_peer[414] 	lookupStabilitySig:mean 	0.76742711174302
scalar Network.dyn_peer[414] 	lookupHopsSig:mean 	15.25
scalar Network.dyn_peer[415] 	lookupTimeSig:mean 	1.8
scalar Network.dyn_peer[415] 	lookupStabilitySig:mean 	0.92145168641582
scalar Network.dyn_peer[415] 	lookupHopsSig:mean 	17.125
scalar Network.dyn_peer[416] 	lookupTimeSig:mean 	1.8428571428571
scalar Network.dyn_peer[416] 	lookupStabilitySig:mean 	0.72943309029298
scalar Network.dyn_peer[416] 	lookupHopsSig:mean 	17.571428571429
scalar Network.dyn_peer[417] 	lookupTimeSig:mean 	1.6416666666667
scalar Network.dyn_peer[417] 	lookupStabilitySig:mean 	0.96042567353773
scalar Network.dyn_peer[417] 	lookupHopsSig:mean 	15.5
scalar Network.dyn_peer[418] 	lookupTimeSig:mean 	1.45
scalar Network.dyn_peer[418] 	lookupStabilitySig:mean 	0.83024972542189
scalar Network.dyn_peer[418] 	lookupHopsSig:mean 	13.6
scalar Network.dyn_peer[419] 	lookupTimeSig:mean 	1.975
scalar Network.dyn_peer[419] 	lookupStabilitySig:mean 	0.73275321908295
scalar Network.dyn_peer[419] 	lookupHopsSig:mean 	19
scalar Network.dyn_peer[420] 	lookupTimeSig:mean 	2.4571428571429
scalar Network.dyn_peer[420] 	lookupStabilitySig:mean 	0.72975507405187
scalar Network.dyn_peer[420] 	lookupHopsSig:mean 	23.714285714286
scalar Network.dyn_peer[421] 	lookupTimeSig:mean 	1.2
scalar Network.dyn_peer[421] 	lookupStabilitySig:mean 	0.54625170119107
[...]
scalar Network.dyn_peer[895] 	lookupHopsSig:mean 	21.5
scalar Network.dyn_peer[896] 	lookupTimeSig:mean 	1.6214285714286
scalar Network.dyn_peer[896] 	lookupStabilitySig:mean 	0.94825363761213
scalar Network.dyn_peer[896] 	lookupHopsSig:mean 	15.285714285714
scalar Network.dyn_peer[897] 	lookupTimeSig:mean 	1.5
scalar Network.dyn_peer[897] 	lookupStabilitySig:mean 	0.72756287902594
scalar Network.dyn_peer[897] 	lookupHopsSig:mean 	14.2
scalar Network.dyn_peer[898] 	lookupTimeSig:mean 	0.5
scalar Network.dyn_peer[898] 	lookupStabilitySig:mean 	0.36666664481163
scalar Network.dyn_peer[898] 	lookupHopsSig:mean 	4.5
scalar Network.dyn_peer[899] 	lookupTimeSig:mean 	1.6666666666667
scalar Network.dyn_peer[899] 	lookupStabilitySig:mean 	0.82759246462956
scalar Network.dyn_peer[899] 	lookupHopsSig:mean 	15.833333333333
scalar Network.dyn_peer[900] 	lookupTimeSig:mean 	3.06
scalar Network.dyn_peer[900] 	lookupStabilitySig:mean 	0.75193295844365
scalar Network.dyn_peer[900] 	lookupHopsSig:mean 	29.8
scalar Network.dyn_peer[901] 	lookupTimeSig:mean 	1.7571428571429
scalar Network.dyn_peer[901] 	lookupStabilitySig:mean 	0.90492707697142
scalar Network.dyn_peer[901] 	lookupHopsSig:mean 	16.714285714286
scalar Network.dyn_peer[902] 	lookupTimeSig:mean 	1.1333333333333
scalar Network.dyn_peer[902] 	lookupStabilitySig:mean 	0.62238572041194
scalar Network.dyn_peer[902] 	lookupHopsSig:mean 	10.666666666667
scalar Network.dyn_peer[903] 	lookupTimeSig:mean 	2.28
scalar Network.dyn_peer[903] 	lookupStabilitySig:mean 	0.80977859981358
scalar Network.dyn_peer[903] 	lookupHopsSig:mean 	22
scalar Network.dyn_peer[904] 	lookupTimeSig:mean 	2.1222222222222
scalar Network.dyn_peer[904] 	lookupStabilitySig:mean 	0.95921300869021
scalar Network.dyn_peer[904] 	lookupHopsSig:mean 	20.333333333333
scalar Network.dyn_peer[905] 	lookupTimeSig:mean 	1.3714285714286
scalar Network.dyn_peer[905] 	lookupStabilitySig:mean 	0.96422388703961
scalar Network.dyn_peer[905] 	lookupHopsSig:mean 	12.785714285714
scalar Network.dyn_peer[906] 	lookupTimeSig:mean 	4.15
scalar Network.dyn_peer[906] 	lookupStabilitySig:mean 	0.71036414429545
scalar Network.dyn_peer[906] 	lookupHopsSig:mean 	41
scalar Network.dyn_peer[907] 	lookupTimeSig:mean 	1.75
scalar Network.dyn_peer[907] 	lookupStabilitySig:mean 	0.69572988152504
scalar Network.dyn_peer[907] 	lookupHopsSig:mean 	16.666666666667
scalar Network.dyn_peer[908] 	lookupTimeSig:mean 	1.8727272727273
scalar Network.dyn_peer[908] 	lookupStabilitySig:mean 	0.93902327569032
scalar Network.dyn_peer[908] 	lookupHopsSig:mean 	17.818181818182
scalar Network.dyn_peer[909] 	lookupTimeSig:mean 	1.6333333333333
scalar Network.dyn_peer[909] 	lookupStabilitySig:mean 	0.82436479079641
scalar Network.dyn_peer[909] 	lookupHopsSig:mean 	15.444444444444
scalar Network.dyn_peer[910] 	lookupTimeSig:mean 	2.6857142857143
scalar Network.dyn_peer[910] 	lookupStabilitySig:mean 	0.95648348158492
scalar Network.dyn_peer[910] 	lookupHopsSig:mean 	26
scalar Network.dyn_peer[911] 	lookupTimeSig:mean 	1.775
scalar Network.dyn_peer[911] 	lookupStabilitySig:mean 	0.60959471575916
scalar Network.dyn_peer[911] 	lookupHopsSig:mean 	17
scalar Network.dyn_peer[912] 	lookupTimeSig:mean 	2.1857142857143
scalar Network.dyn_peer[912] 	lookupStabilitySig:mean 	0.95961756803029
scalar Network.dyn_peer[912] 	lookupHopsSig:mean 	20.928571428571
scalar Network.dyn_peer[913] 	lookupTimeSig:mean 	1.675
scalar Network.dyn_peer[913] 	lookupStabilitySig:mean 	0.87550817406736
scalar Network.dyn_peer[913] 	lookupHopsSig:mean 	15.875
scalar Network.dyn_peer[914] 	lookupTimeSig:mean 	1.7444444444444
scalar Network.dyn_peer[914] 	lookupStabilitySig:mean 	0.82829327001754
scalar Network.dyn_peer[914] 	lookupHopsSig:mean 	16.555555555556
scalar Network.dyn_peer[915] 	lookupTimeSig:mean 	2.05
scalar Network.dyn_peer[915] 	lookupStabilitySig:mean 	0.96000548122295
scalar Network.dyn_peer[915] 	lookupHopsSig:mean 	19.583333333333
scalar Network.dyn_peer[916] 	lookupTimeSig:mean 	4.55
scalar Network.dyn_peer[916] 	lookupStabilitySig:mean 	0.58457710593939
scalar Network.dyn_peer[916] 	lookupHopsSig:mean 	45
scalar Network.dyn_peer[917] 	lookupTimeSig:mean 	2.4833333333333
scalar Network.dyn_peer[917] 	lookupStabilitySig:mean 	0.93293696936841
scalar Network.dyn_peer[917] 	lookupHopsSig:mean 	24
scalar Network.dyn_peer[918] 	lookupTimeSig:mean 	2.8333333333333
scalar Network.dyn_peer[918] 	lookupStabilitySig:mean 	0.86753373934577
scalar Network.dyn_peer[918] 	lookupHopsSig:mean 	27.5
scalar Network.dyn_peer[919] 	lookupTimeSig:mean 	1.2
scalar Network.dyn_peer[919] 	lookupStabilitySig:mean 	0.93207615085079
scalar Network.dyn_peer[919] 	lookupHopsSig:mean 	11.071428571429
scalar Network.dyn_peer[920] 	lookupTimeSig:mean 	1.5
scalar Network.dyn_peer[920] 	lookupStabilitySig:mean 	0.48031174391508
scalar Network.dyn_peer[920] 	lookupHopsSig:mean 	14.5
scalar Network.dyn_peer[921] 	lookupTimeSig:mean 	1.1333333333333
scalar Network.dyn_peer[921] 	lookupStabilitySig:mean 	0.57177826141318
scalar Network.dyn_peer[921] 	lookupHopsSig:mean 	10.666666666667
scalar Network.dyn_peer[922] 	lookupTimeSig:mean 	1.9714285714286
scalar Network.dyn_peer[922] 	lookupStabilitySig:mean 	0.89206117371629
scalar Network.dyn_peer[922] 	lookupHopsSig:mean 	18.857142857143
scalar Network.dyn_peer[923] 	lookupTimeSig:mean 	2.275
scalar Network.dyn_peer[923] 	lookupStabilitySig:mean 	0.62957870960236
scalar Network.dyn_peer[923] 	lookupHopsSig:mean 	22
scalar Network.dyn_peer[924] 	lookupTimeSig:mean 	1.625
scalar Network.dyn_peer[924] 	lookupStabilitySig:mean 	0.6526981331408
scalar Network.dyn_peer[924] 	lookupHopsSig:mean 	15.5
scalar Network.dyn_peer[925] 	lookupTimeSig:mean 	2.74
scalar Network.dyn_peer[925] 	lookupStabilitySig:mean 	0.85055029708892
scalar Network.dyn_peer[925] 	lookupHopsSig:mean 	26.6
scalar Network.dyn_peer[926] 	lookupTimeSig:mean 	1.5166666666667
scalar Network.dyn_peer[926] 	lookupStabilitySig:mean 	0.76539526258906
scalar Network.dyn_peer[926] 	lookupHopsSig:mean 	14.333333333333
scalar Network.dyn_peer[927] 	lookupTimeSig:mean 	2.325
scalar Network.dyn_peer[927] 	lookupStabilitySig:mean 	0.76711093448102
scalar Network.dyn_peer[927] 	lookupHopsSig:mean 	22.5
scalar Network.dyn_peer[928] 	lookupTimeSig:mean 	2.2142857142857
scalar Network.dyn_peer[928] 	lookupStabilitySig:mean 	0.93867406142609
scalar Network.dyn_peer[928] 	lookupHopsSig:mean 	21.285714285714
scalar Network.dyn_peer[929] 	lookupTimeSig:mean 	1.4
scalar Network.dyn_peer[929] 	lookupStabilitySig:mean 	0.79339834153652
scalar Network.dyn_peer[929] 	lookupHopsSig:mean 	13.2
scalar Network.dyn_peer[930] 	lookupTimeSig:mean 	1.98
scalar Network.dyn_peer[930] 	lookupStabilitySig:mean 	0.74600243829191
scalar Network.dyn_peer[930] 	lookupHopsSig:mean 	19
scalar Network.dyn_peer[931] 	lookupTimeSig:mean 	1.6
scalar Network.dyn_peer[931] 	lookupStabilitySig:mean 	0.82502035051584
scalar Network.dyn_peer[931] 	lookupHopsSig:mean 	15.25
scalar Network.dyn_peer[932] 	lookupTimeSig:mean 	2.1142857142857
scalar Network.dyn_peer[932] 	lookupStabilitySig:mean 	0.84168587651636
scalar Network.dyn_peer[932] 	lookupHopsSig:mean 	20.285714285714
scalar Network.dyn_peer[933] 	lookupTimeSig:mean 	1.9666666666667
scalar Network.dyn_peer[933] 	lookupStabilitySig:mean 	0.70097774888078
scalar Network.dyn_peer[933] 	lookupHopsSig:mean 	18.833333333333
scalar Network.dyn_peer[934] 	lookupTimeSig:mean 	2.3166666666667
scalar Network.dyn_peer[934] 	lookupStabilitySig:mean 	0.92476497978593
scalar Network.dyn_peer[934] 	lookupHopsSig:mean 	22.333333333333
scalar Network.dyn_peer[935] 	lookupTimeSig:mean 	1.4625
scalar Network.dyn_peer[935] 	lookupStabilitySig:mean 	0.88396377977915
scalar Network.dyn_peer[935] 	lookupHopsSig:mean 	13.75
scalar Network.dyn_peer[936] 	lookupTimeSig:mean 	1.6
scalar Network.dyn_peer[936] 	lookupStabilitySig:mean 	0.67377534136176
scalar Network.dyn_peer[936] 	lookupHopsSig:mean 	15.2
scalar Network.dyn_peer[937] 	lookupTimeSig:mean 	1.6181818181818
scalar Network.dyn_peer[937] 	lookupStabilitySig:mean 	0.87832679353993
scalar Network.dyn_peer[937] 	lookupHopsSig:mean 	15.272727272727
scalar Network.dyn_peer[938] 	lookupTimeSig:mean 	1.8166666666667
scalar Network.dyn_peer[938] 	lookupStabilitySig:mean 	0.8801353033632
scalar Network.dyn_peer[938] 	lookupHopsSig:mean 	17.333333333333
scalar Network.dyn_peer[939] 	lookupTimeSig:mean 	2.6666666666667
scalar Network.dyn_peer[939] 	lookupStabilitySig:mean 	0.82773869857192
scalar Network.dyn_peer[939] 	lookupHopsSig:mean 	26
scalar Network.dyn_peer[940] 	lookupTimeSig:mean 	1.8384615384615
scalar Network.dyn_peer[940] 	lookupStabilitySig:mean 	0.95015940270745
scalar Network.dyn_peer[940] 	lookupHopsSig:mean 	17.461538461538
scalar Network.dyn_peer[941] 	lookupTimeSig:mean 	2.0583333333333
scalar Network.dyn_peer[941] 	lookupStabilitySig:mean 	0.9680701137598
scalar Network.dyn_peer[941] 	lookupHopsSig:mean 	19.666666666667
scalar Network.dyn_peer[942] 	lookupTimeSig:mean 	1.725
scalar Network.dyn_peer[942] 	lookupStabilitySig:mean 	0.64774052705616
scalar Network.dyn_peer[942] 	lookupHopsSig:mean 	16.5
scalar Network.dyn_peer[943] 	lookupTimeSig:mean 	2.6625
scalar Network.dyn_peer[943] 	lookupStabilitySig:mean 	0.95749451726442
scalar Network.dyn_peer[943] 	lookupHopsSig:mean 	25.75
scalar Network.dyn_peer[944] 	lookupTimeSig:mean 	2.85
scalar Network.dyn_peer[944] 	lookupStabilitySig:mean 	0.66436780244112
scalar Network.dyn_peer[944] 	lookupHopsSig:mean 	28
scalar Network.dyn_peer[945] 	lookupTimeSig:mean 	1.28
scalar Network.dyn_peer[945] 	lookupStabilitySig:mean 	0.84806474884972
scalar Network.dyn_peer[945] 	lookupHopsSig:mean 	11.9
scalar Network.dyn_peer[946] 	lookupTimeSig:mean 	1.7
scalar Network.dyn_peer[946] 	lookupStabilitySig:mean 	0.75782494172454
scalar Network.dyn_peer[946] 	lookupHopsSig:mean 	16.2
scalar Network.dyn_peer[947] 	lookupTimeSig:mean 	2.94
scalar Network.dyn_peer[947] 	lookupStabilitySig:mean 	0.76022398415953
scalar Network.dyn_peer[947] 	lookupHopsSig:mean 	28.6
scalar Network.dyn_peer[948] 	lookupTimeSig:mean 	1.65
scalar Network.dyn_peer[948] 	lookupStabilitySig:mean 	0.8229978797026
scalar Network.dyn_peer[948] 	lookupHopsSig:mean 	15.625
scalar Network.dyn_peer[949] 	lookupTimeSig:mean 	1.9083333333333
scalar Network.dyn_peer[949] 	lookupStabilitySig:mean 	0.87852721638046
scalar Network.dyn_peer[949] 	lookupHopsSig:mean 	18.166666666667
scalar Network.dyn_peer[950] 	lookupTimeSig:mean 	1.1
scalar Network.dyn_peer[950] 	lookupStabilitySig:mean 	0.59537224409481
scalar Network.dyn_peer[950] 	lookupHopsSig:mean 	10.333333333333
scalar Network.dyn_peer[951] 	lookupTimeSig:mean 	1.65
scalar Network.dyn_peer[951] 	lookupStabilitySig:mean 	0.65692641958594
scalar Network.dyn_peer[951] 	lookupHopsSig:mean 	16
scalar Network.dyn_peer[952] 	lookupTimeSig:mean 	1.0857142857143
scalar Network.dyn_peer[952] 	lookupStabilitySig:mean 	0.87805210951982
scalar Network.dyn_peer[952] 	lookupHopsSig:mean 	10
scalar Network.dyn_peer[953] 	lookupTimeSig:mean 	1.3083333333333
scalar Network.dyn_peer[953] 	lookupStabilitySig:mean 	0.91087585928229
scalar Network.dyn_peer[953] 	lookupHopsSig:mean 	12.166666666667
scalar Network.dyn_peer[954] 	lookupTimeSig:mean 	2.1
scalar Network.dyn_peer[954] 	lookupStabilitySig:mean 	0.95190646783966
scalar Network.dyn_peer[954] 	lookupHopsSig:mean 	20.111111111111
scalar Network.dyn_peer[955] 	lookupTimeSig:mean 	1.6857142857143
scalar Network.dyn_peer[955] 	lookupStabilitySig:mean 	0.79267146331923
scalar Network.dyn_peer[955] 	lookupHopsSig:mean 	16
scalar Network.dyn_peer[956] 	lookupTimeSig:mean 	1.1666666666667
scalar Network.dyn_peer[956] 	lookupStabilitySig:mean 	0.63480873405933
scalar Network.dyn_peer[956] 	lookupHopsSig:mean 	11
scalar Network.dyn_peer[957] 	lookupTimeSig:mean 	6.1
scalar Network.dyn_peer[957] 	lookupStabilitySig:mean 	0.44228868931532
scalar Network.dyn_peer[957] 	lookupHopsSig:mean 	60.5
scalar Network.dyn_peer[958] 	lookupTimeSig:mean 	2.2375
scalar Network.dyn_peer[958] 	lookupStabilitySig:mean 	0.95236516650766
scalar Network.dyn_peer[958] 	lookupHopsSig:mean 	21.5
scalar Network.dyn_peer[959] 	lookupTimeSig:mean 	1.7727272727273
scalar Network.dyn_peer[959] 	lookupStabilitySig:mean 	0.96090022300963
scalar Network.dyn_peer[959] 	lookupHopsSig:mean 	16.818181818182
scalar Network.dyn_peer[960] 	lookupTimeSig:mean 	1.725
scalar Network.dyn_peer[960] 	lookupStabilitySig:mean 	0.66285766847432
scalar Network.dyn_peer[960] 	lookupHopsSig:mean 	16.5
scalar Network.dyn_peer[961] 	lookupTimeSig:mean 	1.6
scalar Network.dyn_peer[961] 	lookupStabilitySig:mean 	0.93257273847915
scalar Network.dyn_peer[961] 	lookupHopsSig:mean 	15.090909090909
scalar Network.dyn_peer[962] 	lookupTimeSig:mean 	2.4
scalar Network.dyn_peer[962] 	lookupStabilitySig:mean 	0.70077765733004
scalar Network.dyn_peer[962] 	lookupHopsSig:mean 	23.5
scalar Network.dyn_peer[963] 	lookupTimeSig:mean 	1.0166666666667
scalar Network.dyn_peer[963] 	lookupStabilitySig:mean 	0.86386784554149
scalar Network.dyn_peer[963] 	lookupHopsSig:mean 	9.25
scalar Network.dyn_peer[964] 	lookupTimeSig:mean 	1.6333333333333
scalar Network.dyn_peer[964] 	lookupStabilitySig:mean 	0.50397995114326
scalar Network.dyn_peer[964] 	lookupHopsSig:mean 	15.666666666667
scalar Network.dyn_peer[965] 	lookupTimeSig:mean 	2.4666666666667
scalar Network.dyn_peer[965] 	lookupStabilitySig:mean 	0.69672443966071
scalar Network.dyn_peer[965] 	lookupHopsSig:mean 	24
scalar Network.dyn_peer[966] 	lookupTimeSig:mean 	2
scalar Network.dyn_peer[966] 	lookupStabilitySig:mean 	0.93344762863126
scalar Network.dyn_peer[966] 	lookupHopsSig:mean 	19.083333333333
scalar Network.dyn_peer[967] 	lookupTimeSig:mean 	2.6
scalar Network.dyn_peer[967] 	lookupStabilitySig:mean 	0.89744899480138
scalar Network.dyn_peer[967] 	lookupHopsSig:mean 	25.125
scalar Network.dyn_peer[968] 	lookupTimeSig:mean 	1.74
scalar Network.dyn_peer[968] 	lookupStabilitySig:mean 	0.84259254038334
scalar Network.dyn_peer[968] 	lookupHopsSig:mean 	16.6
scalar Network.dyn_peer[969] 	lookupTimeSig:mean 	4.9
scalar Network.dyn_peer[969] 	lookupStabilitySig:mean 	0.85817307792604
scalar Network.dyn_peer[969] 	lookupHopsSig:mean 	48.5
scalar Network.dyn_peer[970] 	lookupTimeSig:mean 	1.575
scalar Network.dyn_peer[970] 	lookupStabilitySig:mean 	0.86074376494313
scalar Network.dyn_peer[970] 	lookupHopsSig:mean 	14.833333333333
scalar Network.dyn_peer[971] 	lookupTimeSig:mean 	2.475
scalar Network.dyn_peer[971] 	lookupStabilitySig:mean 	0.77541551180184
scalar Network.dyn_peer[971] 	lookupHopsSig:mean 	24
scalar Network.dyn_peer[972] 	lookupTimeSig:mean 	1.5333333333333
scalar Network.dyn_peer[972] 	lookupStabilitySig:mean 	0.75834757710497
scalar Network.dyn_peer[972] 	lookupHopsSig:mean 	14.666666666667
scalar Network.dyn_peer[973] 	lookupTimeSig:mean 	1.325
scalar Network.dyn_peer[973] 	lookupStabilitySig:mean 	0.78048948943615
scalar Network.dyn_peer[973] 	lookupHopsSig:mean 	12.5
scalar Network.dyn_peer[974] 	lookupTimeSig:mean 	4.7
scalar Network.dyn_peer[974] 	lookupStabilitySig:mean 	0.59361700713634
scalar Network.dyn_peer[974] 	lookupHopsSig:mean 	46.5
scalar Network.dyn_peer[975] 	lookupTimeSig:mean 	2.3
scalar Network.dyn_peer[975] 	lookupStabilitySig:mean 	0.9307932793828
scalar Network.dyn_peer[975] 	lookupHopsSig:mean 	22.142857142857
scalar Network.dyn_peer[976] 	lookupTimeSig:mean 	4.9333333333333
scalar Network.dyn_peer[976] 	lookupStabilitySig:mean 	0.80736110856136
scalar Network.dyn_peer[976] 	lookupHopsSig:mean 	48.666666666667
scalar Network.dyn_peer[977] 	lookupTimeSig:mean 	1.9333333333333
scalar Network.dyn_peer[977] 	lookupStabilitySig:mean 	0.56228069464366
scalar Network.dyn_peer[977] 	lookupHopsSig:mean 	18.666666666667
scalar Network.dyn_peer[978] 	lookupTimeSig:mean 	1.8571428571429
scalar Network.dyn_peer[978] 	lookupStabilitySig:mean 	0.94774188287556
scalar Network.dyn_peer[978] 	lookupHopsSig:mean 	17.714285714286
scalar Network.dyn_peer[979] 	lookupTimeSig:mean 	2.3153846153846
scalar Network.dyn_peer[979] 	lookupStabilitySig:mean 	0.97184654944935
scalar Network.dyn_peer[979] 	lookupHopsSig:mean 	22.230769230769
scalar Network.dyn_peer[980] 	lookupTimeSig:mean 	5.05
scalar Network.dyn_peer[980] 	lookupStabilitySig:mean 	0.79099081084132
scalar Network.dyn_peer[980] 	lookupHopsSig:mean 	50
scalar Network.dyn_peer[981] 	lookupTimeSig:mean 	2.2375
scalar Network.dyn_peer[981] 	lookupStabilitySig:mean 	0.93973686441313
scalar Network.dyn_peer[981] 	lookupHopsSig:mean 	21.5
scalar Network.dyn_peer[982] 	lookupTimeSig:mean 	1.7875
scalar Network.dyn_peer[982] 	lookupStabilitySig:mean 	0.91871929215267
scalar Network.dyn_peer[982] 	lookupHopsSig:mean 	17
scalar Network.dyn_peer[983] 	lookupTimeSig:mean 	3.6666666666667
scalar Network.dyn_peer[983] 	lookupStabilitySig:mean 	0.8784398244073
scalar Network.dyn_peer[983] 	lookupHopsSig:mean 	36
scalar Network.dyn_peer[984] 	lookupTimeSig:mean 	2.3666666666667
scalar Network.dyn_peer[984] 	lookupStabilitySig:mean 	0.75684187064568
scalar Network.dyn_peer[984] 	lookupHopsSig:mean 	23
scalar Network.dyn_peer[985] 	lookupTimeSig:mean 	2.3428571428571
scalar Network.dyn_peer[985] 	lookupStabilitySig:mean 	0.94825189979747
scalar Network.dyn_peer[985] 	lookupHopsSig:mean 	22.571428571429
scalar Network.dyn_peer[986] 	lookupTimeSig:mean 	2.05
scalar Network.dyn_peer[986] 	lookupStabilitySig:mean 	0.87102431803942
scalar Network.dyn_peer[986] 	lookupHopsSig:mean 	19.75
scalar Network.dyn_peer[987] 	lookupTimeSig:mean 	1.5076923076923
scalar Network.dyn_peer[987] 	lookupStabilitySig:mean 	0.95697093851721
scalar Network.dyn_peer[987] 	lookupHopsSig:mean 	14.153846153846
scalar Network.dyn_peer[988] 	lookupTimeSig:mean 	1.2125
scalar Network.dyn_peer[988] 	lookupStabilitySig:mean 	0.81507360230898
scalar Network.dyn_peer[988] 	lookupHopsSig:mean 	11.25
scalar Network.dyn_peer[989] 	lookupTimeSig:mean 	1.6666666666667
scalar Network.dyn_peer[989] 	lookupStabilitySig:mean 	0.59849726160367
scalar Network.dyn_peer[989] 	lookupHopsSig:mean 	16
scalar Network.dyn_peer[990] 	lookupTimeSig:mean 	2.72
scalar Network.dyn_peer[990] 	lookupStabilitySig:mean 	0.89062361977994
scalar Network.dyn_peer[990] 	lookupHopsSig:mean 	26.4
scalar Network.dyn_peer[991] 	lookupTimeSig:mean 	2.3857142857143
scalar Network.dyn_peer[991] 	lookupStabilitySig:mean 	0.93225926480123
scalar Network.dyn_peer[991] 	lookupHopsSig:mean 	23
scalar Network.dyn_peer[992] 	lookupTimeSig:mean 	2.175
scalar Network.dyn_peer[992] 	lookupStabilitySig:mean 	0.79810927994549
scalar Network.dyn_peer[992] 	lookupHopsSig:mean 	21
scalar Network.dyn_peer[993] 	lookupTimeSig:mean 	3.475
scalar Network.dyn_peer[993] 	lookupStabilitySig:mean 	0.66437045368366
scalar Network.dyn_peer[993] 	lookupHopsSig:mean 	34
scalar Network.dyn_peer[994] 	lookupTimeSig:mean 	1.36
scalar Network.dyn_peer[994] 	lookupStabilitySig:mean 	0.80368064418435
scalar Network.dyn_peer[994] 	lookupHopsSig:mean 	12.8
scalar Network.dyn_peer[995] 	lookupTimeSig:mean 	1.7
scalar Network.dyn_peer[995] 	lookupStabilitySig:mean 	0.70157677307725
scalar Network.dyn_peer[995] 	lookupHopsSig:mean 	16.25
scalar Network.dyn_peer[996] 	lookupTimeSig:mean 	2.6
scalar Network.dyn_peer[996] 	lookupStabilitySig:mean 	0.79542325374981
scalar Network.dyn_peer[996] 	lookupHopsSig:mean 	25.166666666667
scalar Network.dyn_peer[997] 	lookupTimeSig:mean 	2.4
scalar Network.dyn_peer[997] 	lookupStabilitySig:mean 	0.92392050884664
scalar Network.dyn_peer[997] 	lookupHopsSig:mean 	23.2
scalar Network.dyn_peer[998] 	lookupTimeSig:mean 	1.1454545454545
scalar Network.dyn_peer[998] 	lookupStabilitySig:mean 	0.90581206858835
scalar Network.dyn_peer[998] 	lookupHopsSig:mean 	10.545454545455
scalar Network.dyn_peer[999] 	lookupTimeSig:mean 	2.6333333333333
scalar Network.dyn_peer[999] 	lookupStabilitySig:mean 	0.93918229375655
scalar Network.dyn_peer[999] 	lookupHopsSig:mean 	25.5
scalar Network.churner 	inGoingSizeSig:mean 	499.000999001
