version 2
run Stability2-309-20130526-00:54:45-26640
attr configname Stability2
attr datetime 20130526-00:54:45
attr experiment Stability2
attr inifile omnetpp.ini
attr iterationvars $0=1000
attr iterationvars2 "$0=1000, $repetition=9"
attr measurement $0=1000
attr network Network
attr processid 26640
attr repetition 9
attr replication #9
attr resultdir results
attr runnumber 309
attr seedset 309

scalar Network.dyn_peer[0] 	lookupTimeSig:mean 	1.42
scalar Network.dyn_peer[0] 	lookupStabilitySig:mean 	0.40646774210036
scalar Network.dyn_peer[0] 	lookupHopsSig:mean 	13.4
scalar Network.dyn_peer[1] 	lookupTimeSig:mean 	1.7714285714286
scalar Network.dyn_peer[1] 	lookupStabilitySig:mean 	0.62723451999149
scalar Network.dyn_peer[1] 	lookupHopsSig:mean 	16.857142857143
scalar Network.dyn_peer[2] 	lookupTimeSig:mean 	2.05
scalar Network.dyn_peer[2] 	lookupStabilitySig:mean 	0.48255998268723
scalar Network.dyn_peer[2] 	lookupHopsSig:mean 	19.75
scalar Network.dyn_peer[3] 	lookupTimeSig:mean 	1.76
scalar Network.dyn_peer[3] 	lookupStabilitySig:mean 	0.34004153087735
scalar Network.dyn_peer[3] 	lookupHopsSig:mean 	16.8
scalar Network.dyn_peer[4] 	lookupTimeSig:mean 	2.52
scalar Network.dyn_peer[4] 	lookupStabilitySig:mean 	0.82699125409126
scalar Network.dyn_peer[4] 	lookupHopsSig:mean 	24.4
scalar Network.dyn_peer[5] 	lookupTimeSig:mean 	1.9714285714286
scalar Network.dyn_peer[5] 	lookupStabilitySig:mean 	0.5403197354504
scalar Network.dyn_peer[5] 	lookupHopsSig:mean 	18.857142857143
scalar Network.dyn_peer[6] 	lookupTimeSig:mean 	1.8
scalar Network.dyn_peer[6] 	lookupStabilitySig:mean 	0.77328682234511
scalar Network.dyn_peer[6] 	lookupHopsSig:mean 	17.1
scalar Network.dyn_peer[7] 	lookupTimeSig:mean 	1.25
scalar Network.dyn_peer[7] 	lookupStabilitySig:mean 	0.18765059113503
scalar Network.dyn_peer[7] 	lookupHopsSig:mean 	11.75
scalar Network.dyn_peer[8] 	lookupTimeSig:mean 	2.05
scalar Network.dyn_peer[8] 	lookupStabilitySig:mean 	0.70322078175377
scalar Network.dyn_peer[8] 	lookupHopsSig:mean 	19.75
scalar Network.dyn_peer[9] 	lookupTimeSig:mean 	3.2
scalar Network.dyn_peer[9] 	lookupStabilitySig:mean 	0.59750140272081
scalar Network.dyn_peer[9] 	lookupHopsSig:mean 	31.25
scalar Network.dyn_peer[10] 	lookupTimeSig:mean 	2.625
scalar Network.dyn_peer[10] 	lookupStabilitySig:mean 	0.54135487042367
scalar Network.dyn_peer[10] 	lookupHopsSig:mean 	25.5
scalar Network.dyn_peer[11] 	lookupTimeSig:mean 	1.6416666666667
scalar Network.dyn_peer[11] 	lookupStabilitySig:mean 	0.76821505976841
scalar Network.dyn_peer[11] 	lookupHopsSig:mean 	15.5
scalar Network.dyn_peer[12] 	lookupTimeSig:mean 	1.6333333333333
scalar Network.dyn_peer[12] 	lookupStabilitySig:mean 	0.34679386019707
scalar Network.dyn_peer[12] 	lookupHopsSig:mean 	15.666666666667
scalar Network.dyn_peer[13] 	lookupTimeSig:mean 	2.7
scalar Network.dyn_peer[13] 	lookupStabilitySig:mean 	0.27618024498224
scalar Network.dyn_peer[13] 	lookupHopsSig:mean 	26.25
scalar Network.dyn_peer[14] 	lookupTimeSig:mean 	2.375
scalar Network.dyn_peer[14] 	lookupStabilitySig:mean 	0.95281306473771
scalar Network.dyn_peer[14] 	lookupHopsSig:mean 	22.875
scalar Network.dyn_peer[15] 	lookupTimeSig:mean 	2.4285714285714
scalar Network.dyn_peer[15] 	lookupStabilitySig:mean 	0.59936917007768
scalar Network.dyn_peer[15] 	lookupHopsSig:mean 	23.428571428571
scalar Network.dyn_peer[16] 	lookupTimeSig:mean 	1.04
scalar Network.dyn_peer[16] 	lookupStabilitySig:mean 	0.46119588017464
scalar Network.dyn_peer[16] 	lookupHopsSig:mean 	9.6
scalar Network.dyn_peer[17] 	lookupTimeSig:mean 	2.275
scalar Network.dyn_peer[17] 	lookupStabilitySig:mean 	0.37087112106383
scalar Network.dyn_peer[17] 	lookupHopsSig:mean 	22
scalar Network.dyn_peer[18] 	lookupTimeSig:mean 	1.12
scalar Network.dyn_peer[18] 	lookupStabilitySig:mean 	0.44813838377595
scalar Network.dyn_peer[18] 	lookupHopsSig:mean 	10.4
scalar Network.dyn_peer[19] 	lookupTimeSig:mean 	1.6636363636364
scalar Network.dyn_peer[19] 	lookupStabilitySig:mean 	0.76401231420988
scalar Network.dyn_peer[19] 	lookupHopsSig:mean 	15.727272727273
scalar Network.dyn_peer[20] 	lookupTimeSig:mean 	1.3333333333333
scalar Network.dyn_peer[20] 	lookupStabilitySig:mean 	0.39184855297208
scalar Network.dyn_peer[20] 	lookupHopsSig:mean 	12.5
scalar Network.dyn_peer[21] 	lookupTimeSig:mean 	0.825
scalar Network.dyn_peer[21] 	lookupStabilitySig:mean 	0.29062500596046
scalar Network.dyn_peer[21] 	lookupHopsSig:mean 	7.5
scalar Network.dyn_peer[22] 	lookupTimeSig:mean 	1.6272727272727
scalar Network.dyn_peer[22] 	lookupStabilitySig:mean 	0.72088733781129
scalar Network.dyn_peer[22] 	lookupHopsSig:mean 	15.363636363636
scalar Network.dyn_peer[23] 	lookupTimeSig:mean 	3.075
scalar Network.dyn_peer[23] 	lookupStabilitySig:mean 	0.13865271024406
scalar Network.dyn_peer[23] 	lookupHopsSig:mean 	30
scalar Network.dyn_peer[24] 	lookupTimeSig:mean 	2.05
scalar Network.dyn_peer[24] 	lookupStabilitySig:mean 	0.17657019197941
scalar Network.dyn_peer[24] 	lookupHopsSig:mean 	19.75
scalar Network.dyn_peer[25] 	lookupTimeSig:mean 	1.65
scalar Network.dyn_peer[25] 	lookupStabilitySig:mean 	0.27846297621727
scalar Network.dyn_peer[25] 	lookupHopsSig:mean 	15.75
scalar Network.dyn_peer[26] 	lookupTimeSig:mean 	1.425
scalar Network.dyn_peer[26] 	lookupStabilitySig:mean 	0.44925223104656
scalar Network.dyn_peer[26] 	lookupHopsSig:mean 	13.5
scalar Network.dyn_peer[27] 	lookupTimeSig:mean 	2.9666666666667
scalar Network.dyn_peer[27] 	lookupStabilitySig:mean 	0.30116087384522
scalar Network.dyn_peer[27] 	lookupHopsSig:mean 	29
scalar Network.dyn_peer[28] 	lookupTimeSig:mean 	1.8285714285714
scalar Network.dyn_peer[28] 	lookupStabilitySig:mean 	0.80739608486848
scalar Network.dyn_peer[28] 	lookupHopsSig:mean 	17.428571428571
scalar Network.dyn_peer[29] 	lookupTimeSig:mean 	2.18
scalar Network.dyn_peer[29] 	lookupStabilitySig:mean 	0.34484865963459
scalar Network.dyn_peer[29] 	lookupHopsSig:mean 	21
scalar Network.dyn_peer[30] 	lookupTimeSig:mean 	2.7
scalar Network.dyn_peer[30] 	lookupStabilitySig:mean 	0.56523837381974
scalar Network.dyn_peer[30] 	lookupHopsSig:mean 	26.166666666667
scalar Network.dyn_peer[31] 	lookupTimeSig:mean 	1.675
scalar Network.dyn_peer[31] 	lookupStabilitySig:mean 	0.28580380929634
scalar Network.dyn_peer[31] 	lookupHopsSig:mean 	16
scalar Network.dyn_peer[32] 	lookupTimeSig:mean 	3.4666666666667
scalar Network.dyn_peer[32] 	lookupStabilitySig:mean 	-0.14555469155312
scalar Network.dyn_peer[32] 	lookupHopsSig:mean 	34
scalar Network.dyn_peer[33] 	lookupTimeSig:mean 	2.12
scalar Network.dyn_peer[33] 	lookupStabilitySig:mean 	0.50030434206128
scalar Network.dyn_peer[33] 	lookupHopsSig:mean 	20.4
scalar Network.dyn_peer[34] 	lookupTimeSig:mean 	2.225
scalar Network.dyn_peer[34] 	lookupStabilitySig:mean 	0.55241392180324
scalar Network.dyn_peer[34] 	lookupHopsSig:mean 	21.5
scalar Network.dyn_peer[35] 	lookupTimeSig:mean 	1.8
scalar Network.dyn_peer[35] 	lookupStabilitySig:mean 	0.21272127144039
scalar Network.dyn_peer[35] 	lookupHopsSig:mean 	17.25
scalar Network.dyn_peer[36] 	lookupTimeSig:mean 	0.97142857142857
scalar Network.dyn_peer[36] 	lookupStabilitySig:mean 	0.56946467022811
scalar Network.dyn_peer[36] 	lookupHopsSig:mean 	8.8571428571429
scalar Network.dyn_peer[37] 	lookupTimeSig:mean 	2.0833333333333
scalar Network.dyn_peer[37] 	lookupStabilitySig:mean 	0.54052148879661
scalar Network.dyn_peer[37] 	lookupHopsSig:mean 	20
scalar Network.dyn_peer[38] 	lookupTimeSig:mean 	1.65
scalar Network.dyn_peer[38] 	lookupStabilitySig:mean 	0.21944756992161
scalar Network.dyn_peer[38] 	lookupHopsSig:mean 	15.75
scalar Network.dyn_peer[39] 	lookupTimeSig:mean 	2.125
scalar Network.dyn_peer[39] 	lookupStabilitySig:mean 	0.40931557008298
scalar Network.dyn_peer[39] 	lookupHopsSig:mean 	20.5
scalar Network.dyn_peer[40] 	lookupTimeSig:mean 	1.87
scalar Network.dyn_peer[40] 	lookupStabilitySig:mean 	0.84535705354065
scalar Network.dyn_peer[40] 	lookupHopsSig:mean 	17.8
scalar Network.dyn_peer[41] 	lookupTimeSig:mean 	3.1833333333333
scalar Network.dyn_peer[41] 	lookupStabilitySig:mean 	0.78403376151497
scalar Network.dyn_peer[41] 	lookupHopsSig:mean 	31
scalar Network.dyn_peer[42] 	lookupTimeSig:mean 	1.7333333333333
scalar Network.dyn_peer[42] 	lookupStabilitySig:mean 	0.75995262448365
scalar Network.dyn_peer[42] 	lookupHopsSig:mean 	16.444444444444
scalar Network.dyn_peer[43] 	lookupTimeSig:mean 	1.1923076923077
scalar Network.dyn_peer[43] 	lookupStabilitySig:mean 	0.85092345413824
scalar Network.dyn_peer[43] 	lookupHopsSig:mean 	11
scalar Network.dyn_peer[44] 	lookupTimeSig:mean 	1.0333333333333
scalar Network.dyn_peer[44] 	lookupStabilitySig:mean 	0.41772490902804
scalar Network.dyn_peer[44] 	lookupHopsSig:mean 	9.5
scalar Network.dyn_peer[45] 	lookupTimeSig:mean 	1.45
scalar Network.dyn_peer[45] 	lookupStabilitySig:mean 	0.3176300143823
scalar Network.dyn_peer[45] 	lookupHopsSig:mean 	13.75
scalar Network.dyn_peer[46] 	lookupTimeSig:mean 	1.7625
scalar Network.dyn_peer[46] 	lookupStabilitySig:mean 	0.77902482060017
scalar Network.dyn_peer[46] 	lookupHopsSig:mean 	16.75
scalar Network.dyn_peer[47] 	lookupTimeSig:mean 	2.3666666666667
scalar Network.dyn_peer[47] 	lookupStabilitySig:mean 	0.37120500206947
scalar Network.dyn_peer[47] 	lookupHopsSig:mean 	23
scalar Network.dyn_peer[48] 	lookupTimeSig:mean 	2.0166666666667
scalar Network.dyn_peer[48] 	lookupStabilitySig:mean 	0.5323523861977
scalar Network.dyn_peer[48] 	lookupHopsSig:mean 	19.333333333333
scalar Network.dyn_peer[49] 	lookupTimeSig:mean 	1.6083333333333
scalar Network.dyn_peer[49] 	lookupStabilitySig:mean 	0.94241850801821
scalar Network.dyn_peer[49] 	lookupHopsSig:mean 	15.166666666667
scalar Network.dyn_peer[50] 	lookupTimeSig:mean 	1.65
scalar Network.dyn_peer[50] 	lookupStabilitySig:mean 	0.26060605049133
scalar Network.dyn_peer[50] 	lookupHopsSig:mean 	16
scalar Network.dyn_peer[51] 	lookupTimeSig:mean 	2.08
scalar Network.dyn_peer[51] 	lookupStabilitySig:mean 	0.68869547620416
scalar Network.dyn_peer[51] 	lookupHopsSig:mean 	20
scalar Network.dyn_peer[52] 	lookupTimeSig:mean 	1.5
scalar Network.dyn_peer[52] 	lookupStabilitySig:mean 	0.51880877614021
scalar Network.dyn_peer[52] 	lookupHopsSig:mean 	14.2
scalar Network.dyn_peer[53] 	lookupTimeSig:mean 	4.9
scalar Network.dyn_peer[53] 	lookupStabilitySig:mean 	0.28333330899477
scalar Network.dyn_peer[53] 	lookupHopsSig:mean 	48.5
scalar Network.dyn_peer[54] 	lookupTimeSig:mean 	1.7428571428571
scalar Network.dyn_peer[54] 	lookupStabilitySig:mean 	0.63430369831622
scalar Network.dyn_peer[54] 	lookupHopsSig:mean 	16.571428571429
scalar Network.dyn_peer[55] 	lookupTimeSig:mean 	3.12
scalar Network.dyn_peer[55] 	lookupStabilitySig:mean 	0.85701117515564
scalar Network.dyn_peer[55] 	lookupHopsSig:mean 	30.4
scalar Network.dyn_peer[56] 	lookupTimeSig:mean 	1.05
scalar Network.dyn_peer[56] 	lookupStabilitySig:mean 	0.33097484335303
scalar Network.dyn_peer[56] 	lookupHopsSig:mean 	9.75
scalar Network.dyn_peer[57] 	lookupTimeSig:mean 	1.7444444444444
scalar Network.dyn_peer[57] 	lookupStabilitySig:mean 	0.78979532073976
scalar Network.dyn_peer[57] 	lookupHopsSig:mean 	16.555555555556
scalar Network.dyn_peer[58] 	lookupTimeSig:mean 	1.2833333333333
scalar Network.dyn_peer[58] 	lookupStabilitySig:mean 	0.41559193097055
scalar Network.dyn_peer[58] 	lookupHopsSig:mean 	12
scalar Network.dyn_peer[59] 	lookupTimeSig:mean 	1.7333333333333
scalar Network.dyn_peer[59] 	lookupStabilitySig:mean 	0.031385247906049
scalar Network.dyn_peer[59] 	lookupHopsSig:mean 	16.666666666667
scalar Network.dyn_peer[60] 	lookupTimeSig:mean 	2.2
scalar Network.dyn_peer[60] 	lookupStabilitySig:mean 	0.50852689466306
scalar Network.dyn_peer[60] 	lookupHopsSig:mean 	21.142857142857
scalar Network.dyn_peer[61] 	lookupTimeSig:mean 	3.24
scalar Network.dyn_peer[61] 	lookupStabilitySig:mean 	0.89780064504594
scalar Network.dyn_peer[61] 	lookupHopsSig:mean 	31.6
scalar Network.dyn_peer[62] 	lookupTimeSig:mean 	1.32
scalar Network.dyn_peer[62] 	lookupStabilitySig:mean 	0.44062848985195
scalar Network.dyn_peer[62] 	lookupHopsSig:mean 	12.4
scalar Network.dyn_peer[63] 	lookupTimeSig:mean 	2.26
scalar Network.dyn_peer[63] 	lookupStabilitySig:mean 	0.4821871869266
scalar Network.dyn_peer[63] 	lookupHopsSig:mean 	21.8
scalar Network.dyn_peer[64] 	lookupTimeSig:mean 	3.8666666666667
scalar Network.dyn_peer[64] 	lookupStabilitySig:mean 	0.23190831144651
scalar Network.dyn_peer[64] 	lookupHopsSig:mean 	38
scalar Network.dyn_peer[65] 	lookupTimeSig:mean 	3.58
scalar Network.dyn_peer[65] 	lookupStabilitySig:mean 	0.71383034959435
scalar Network.dyn_peer[65] 	lookupHopsSig:mean 	35
scalar Network.dyn_peer[66] 	lookupTimeSig:mean 	1.475
scalar Network.dyn_peer[66] 	lookupStabilitySig:mean 	0.21134085953236
scalar Network.dyn_peer[66] 	lookupHopsSig:mean 	14
scalar Network.dyn_peer[67] 	lookupTimeSig:mean 	2.26
scalar Network.dyn_peer[67] 	lookupStabilitySig:mean 	0.91163475848734
scalar Network.dyn_peer[67] 	lookupHopsSig:mean 	21.8
scalar Network.dyn_peer[68] 	lookupTimeSig:mean 	1.5785714285714
scalar Network.dyn_peer[68] 	lookupStabilitySig:mean 	0.88548422455954
scalar Network.dyn_peer[68] 	lookupHopsSig:mean 	14.857142857143
scalar Network.dyn_peer[69] 	lookupTimeSig:mean 	2.325
scalar Network.dyn_peer[69] 	lookupStabilitySig:mean 	0.43122056312859
scalar Network.dyn_peer[69] 	lookupHopsSig:mean 	22.5
scalar Network.dyn_peer[70] 	lookupTimeSig:mean 	1.8666666666667
scalar Network.dyn_peer[70] 	lookupStabilitySig:mean 	0.78363283723593
scalar Network.dyn_peer[70] 	lookupHopsSig:mean 	17.833333333333
scalar Network.dyn_peer[71] 	lookupTimeSig:mean 	1.8583333333333
scalar Network.dyn_peer[71] 	lookupStabilitySig:mean 	0.88139988691546
scalar Network.dyn_peer[71] 	lookupHopsSig:mean 	17.666666666667
scalar Network.dyn_peer[72] 	lookupTimeSig:mean 	1.7
scalar Network.dyn_peer[72] 	lookupStabilitySig:mean 	0.66845467826352
scalar Network.dyn_peer[72] 	lookupHopsSig:mean 	16.125
scalar Network.dyn_peer[73] 	lookupTimeSig:mean 	2.425
scalar Network.dyn_peer[73] 	lookupStabilitySig:mean 	0.20543763414025
scalar Network.dyn_peer[73] 	lookupHopsSig:mean 	23.5
scalar Network.dyn_peer[74] 	lookupTimeSig:mean 	2.1714285714286
scalar Network.dyn_peer[74] 	lookupStabilitySig:mean 	0.87152821823422
scalar Network.dyn_peer[74] 	lookupHopsSig:mean 	20.857142857143
scalar Network.dyn_peer[75] 	lookupTimeSig:mean 	1.6666666666667
scalar Network.dyn_peer[75] 	lookupStabilitySig:mean 	0.38209682206313
scalar Network.dyn_peer[75] 	lookupHopsSig:mean 	16
scalar Network.dyn_peer[76] 	lookupTimeSig:mean 	2.775
scalar Network.dyn_peer[76] 	lookupStabilitySig:mean 	0.93660201865714
scalar Network.dyn_peer[76] 	lookupHopsSig:mean 	26.875
scalar Network.dyn_peer[77] 	lookupTimeSig:mean 	2.8333333333333
scalar Network.dyn_peer[77] 	lookupStabilitySig:mean 	-0.031965086857478
scalar Network.dyn_peer[77] 	lookupHopsSig:mean 	27.666666666667
scalar Network.dyn_peer[78] 	lookupTimeSig:mean 	1.6
scalar Network.dyn_peer[78] 	lookupStabilitySig:mean 	0.61641413252801
scalar Network.dyn_peer[78] 	lookupHopsSig:mean 	15.25
scalar Network.dyn_peer[79] 	lookupTimeSig:mean 	1.9166666666667
scalar Network.dyn_peer[79] 	lookupStabilitySig:mean 	0.56985145186385
scalar Network.dyn_peer[79] 	lookupHopsSig:mean 	18.333333333333
scalar Network.dyn_peer[80] 	lookupTimeSig:mean 	1.6714285714286
scalar Network.dyn_peer[80] 	lookupStabilitySig:mean 	0.84861760972334
scalar Network.dyn_peer[80] 	lookupHopsSig:mean 	15.857142857143
scalar Network.dyn_peer[81] 	lookupTimeSig:mean 	3
scalar Network.dyn_peer[81] 	lookupStabilitySig:mean 	0.35921327024698
scalar Network.dyn_peer[81] 	lookupHopsSig:mean 	29.5
scalar Network.dyn_peer[82] 	lookupTimeSig:mean 	1.3307692307692
scalar Network.dyn_peer[82] 	lookupStabilitySig:mean 	0.73979166293373
scalar Network.dyn_peer[82] 	lookupHopsSig:mean 	12.384615384615
scalar Network.dyn_peer[83] 	lookupTimeSig:mean 	1.8
scalar Network.dyn_peer[83] 	lookupStabilitySig:mean 	0.77445482710997
scalar Network.dyn_peer[83] 	lookupHopsSig:mean 	17.333333333333
scalar Network.dyn_peer[84] 	lookupTimeSig:mean 	1.74
scalar Network.dyn_peer[84] 	lookupStabilitySig:mean 	0.65143007487059
scalar Network.dyn_peer[84] 	lookupHopsSig:mean 	16.6
scalar Network.dyn_peer[85] 	lookupTimeSig:mean 	2.54
scalar Network.dyn_peer[85] 	lookupStabilitySig:mean 	0.55138575062156
scalar Network.dyn_peer[85] 	lookupHopsSig:mean 	24.6
scalar Network.dyn_peer[86] 	lookupTimeSig:mean 	2.7
scalar Network.dyn_peer[86] 	lookupStabilitySig:mean 	0.2333896048367
scalar Network.dyn_peer[86] 	lookupHopsSig:mean 	26.25
scalar Network.dyn_peer[87] 	lookupTimeSig:mean 	1.4
scalar Network.dyn_peer[87] 	lookupStabilitySig:mean 	0.72077974490821
scalar Network.dyn_peer[87] 	lookupHopsSig:mean 	13.090909090909
scalar Network.dyn_peer[88] 	lookupTimeSig:mean 	4.75
scalar Network.dyn_peer[88] 	lookupStabilitySig:mean 	0.87399463355541
scalar Network.dyn_peer[88] 	lookupHopsSig:mean 	47
scalar Network.dyn_peer[89] 	lookupTimeSig:mean 	2.85
scalar Network.dyn_peer[89] 	lookupStabilitySig:mean 	0.84149300235246
scalar Network.dyn_peer[89] 	lookupHopsSig:mean 	27.666666666667
scalar Network.dyn_peer[90] 	lookupTimeSig:mean 	1.9
scalar Network.dyn_peer[90] 	lookupStabilitySig:mean 	0.1989696820577
scalar Network.dyn_peer[90] 	lookupHopsSig:mean 	18.333333333333
scalar Network.dyn_peer[91] 	lookupTimeSig:mean 	1.775
scalar Network.dyn_peer[91] 	lookupStabilitySig:mean 	0.7064371407032
scalar Network.dyn_peer[91] 	lookupHopsSig:mean 	17
scalar Network.dyn_peer[92] 	lookupTimeSig:mean 	2.6333333333333
scalar Network.dyn_peer[92] 	lookupStabilitySig:mean 	0.91224904738677
scalar Network.dyn_peer[92] 	lookupHopsSig:mean 	25.5
scalar Network.dyn_peer[93] 	lookupTimeSig:mean 	2.7
scalar Network.dyn_peer[93] 	lookupStabilitySig:mean 	0.91850642984112
scalar Network.dyn_peer[93] 	lookupHopsSig:mean 	26.166666666667
scalar Network.dyn_peer[94] 	lookupTimeSig:mean 	2.3
scalar Network.dyn_peer[94] 	lookupStabilitySig:mean 	0.37439238838851
scalar Network.dyn_peer[94] 	lookupHopsSig:mean 	22.25
scalar Network.dyn_peer[95] 	lookupTimeSig:mean 	1.7333333333333
scalar Network.dyn_peer[95] 	lookupStabilitySig:mean 	-0.088806658983231
scalar Network.dyn_peer[95] 	lookupHopsSig:mean 	16.666666666667
scalar Network.dyn_peer[96] 	lookupTimeSig:mean 	1.1666666666667
scalar Network.dyn_peer[96] 	lookupStabilitySig:mean 	0.40973620861769
scalar Network.dyn_peer[96] 	lookupHopsSig:mean 	10.833333333333
scalar Network.dyn_peer[97] 	lookupTimeSig:mean 	0.66
scalar Network.dyn_peer[97] 	lookupStabilitySig:mean 	0.74557070024312
scalar Network.dyn_peer[97] 	lookupHopsSig:mean 	5.7
scalar Network.dyn_peer[98] 	lookupTimeSig:mean 	2.06
scalar Network.dyn_peer[98] 	lookupStabilitySig:mean 	0.54563673688099
scalar Network.dyn_peer[98] 	lookupHopsSig:mean 	19.8
scalar Network.dyn_peer[99] 	lookupTimeSig:mean 	1.75
scalar Network.dyn_peer[99] 	lookupStabilitySig:mean 	-0.21621622145176
scalar Network.dyn_peer[99] 	lookupHopsSig:mean 	17
scalar Network.dyn_peer[100] 	lookupTimeSig:mean 	1.8142857142857
scalar Network.dyn_peer[100] 	lookupStabilitySig:mean 	0.69707646739802
scalar Network.dyn_peer[100] 	lookupHopsSig:mean 	17.285714285714
scalar Network.dyn_peer[101] 	lookupTimeSig:mean 	4
scalar Network.dyn_peer[101] 	lookupStabilitySig:mean 	0.51904419188698
scalar Network.dyn_peer[101] 	lookupHopsSig:mean 	39.333333333333
scalar Network.dyn_peer[102] 	lookupTimeSig:mean 	2.8
scalar Network.dyn_peer[102] 	lookupStabilitySig:mean 	0.40254237502813
scalar Network.dyn_peer[102] 	lookupHopsSig:mean 	27.5
scalar Network.dyn_peer[103] 	lookupTimeSig:mean 	2.3142857142857
scalar Network.dyn_peer[103] 	lookupStabilitySig:mean 	0.76765706203878
scalar Network.dyn_peer[103] 	lookupHopsSig:mean 	22.285714285714
scalar Network.dyn_peer[104] 	lookupTimeSig:mean 	1.3142857142857
scalar Network.dyn_peer[104] 	lookupStabilitySig:mean 	0.7397624312767
scalar Network.dyn_peer[104] 	lookupHopsSig:mean 	12.285714285714
scalar Network.dyn_peer[105] 	lookupTimeSig:mean 	1.8
scalar Network.dyn_peer[105] 	lookupStabilitySig:mean 	0.72073046790643
scalar Network.dyn_peer[105] 	lookupHopsSig:mean 	17.111111111111
scalar Network.dyn_peer[106] 	lookupTimeSig:mean 	2.5
scalar Network.dyn_peer[106] 	lookupStabilitySig:mean 	0.56125902943313
scalar Network.dyn_peer[106] 	lookupHopsSig:mean 	24.25
scalar Network.dyn_peer[107] 	lookupTimeSig:mean 	2.9333333333333
scalar Network.dyn_peer[107] 	lookupStabilitySig:mean 	0.65296073506276
scalar Network.dyn_peer[107] 	lookupHopsSig:mean 	28.666666666667
scalar Network.dyn_peer[108] 	lookupTimeSig:mean 	2.1285714285714
scalar Network.dyn_peer[108] 	lookupStabilitySig:mean 	0.50299493542739
scalar Network.dyn_peer[108] 	lookupHopsSig:mean 	20.428571428571
scalar Network.dyn_peer[109] 	lookupTimeSig:mean 	2.5571428571429
scalar Network.dyn_peer[109] 	lookupStabilitySig:mean 	0.62735494931362
scalar Network.dyn_peer[109] 	lookupHopsSig:mean 	24.714285714286
scalar Network.dyn_peer[110] 	lookupTimeSig:mean 	2.4285714285714
scalar Network.dyn_peer[110] 	lookupStabilitySig:mean 	0.57886208247926
scalar Network.dyn_peer[110] 	lookupHopsSig:mean 	23.428571428571
scalar Network.dyn_peer[111] 	lookupTimeSig:mean 	1.1416666666667
scalar Network.dyn_peer[111] 	lookupStabilitySig:mean 	0.73595314185756
scalar Network.dyn_peer[111] 	lookupHopsSig:mean 	10.5
scalar Network.dyn_peer[112] 	lookupTimeSig:mean 	1.75
scalar Network.dyn_peer[112] 	lookupStabilitySig:mean 	0.55748616717756
scalar Network.dyn_peer[112] 	lookupHopsSig:mean 	16.75
scalar Network.dyn_peer[113] 	lookupTimeSig:mean 	4.35
scalar Network.dyn_peer[113] 	lookupStabilitySig:mean 	0.27767581492662
scalar Network.dyn_peer[113] 	lookupHopsSig:mean 	43
scalar Network.dyn_peer[114] 	lookupTimeSig:mean 	1.5875
scalar Network.dyn_peer[114] 	lookupStabilitySig:mean 	0.80146396672353
scalar Network.dyn_peer[114] 	lookupHopsSig:mean 	15
scalar Network.dyn_peer[115] 	lookupTimeSig:mean 	3.35
scalar Network.dyn_peer[115] 	lookupStabilitySig:mean 	0.24293191730976
scalar Network.dyn_peer[115] 	lookupHopsSig:mean 	33
scalar Network.dyn_peer[116] 	lookupTimeSig:mean 	2.1625
scalar Network.dyn_peer[116] 	lookupStabilitySig:mean 	0.92770901235053
scalar Network.dyn_peer[116] 	lookupHopsSig:mean 	20.75
scalar Network.dyn_peer[117] 	lookupTimeSig:mean 	2
scalar Network.dyn_peer[117] 	lookupStabilitySig:mean 	0.82455077469349
scalar Network.dyn_peer[117] 	lookupHopsSig:mean 	19.2
scalar Network.dyn_peer[118] 	lookupTimeSig:mean 	2.4666666666667
scalar Network.dyn_peer[118] 	lookupStabilitySig:mean 	0.71149109366039
scalar Network.dyn_peer[118] 	lookupHopsSig:mean 	24
scalar Network.dyn_peer[119] 	lookupTimeSig:mean 	2.1
scalar Network.dyn_peer[119] 	lookupStabilitySig:mean 	0.66596934106201
scalar Network.dyn_peer[119] 	lookupHopsSig:mean 	20.25
scalar Network.dyn_peer[120] 	lookupTimeSig:mean 	1.9
scalar Network.dyn_peer[120] 	lookupStabilitySig:mean 	0.96622703364119
scalar Network.dyn_peer[120] 	lookupHopsSig:mean 	18.076923076923
scalar Network.dyn_peer[121] 	lookupTimeSig:mean 	2.35
scalar Network.dyn_peer[121] 	lookupStabilitySig:mean 	0.17950452677906
scalar Network.dyn_peer[121] 	lookupHopsSig:mean 	22.75
scalar Network.dyn_peer[122] 	lookupTimeSig:mean 	1.6333333333333
scalar Network.dyn_peer[122] 	lookupStabilitySig:mean 	0.17113157113393
scalar Network.dyn_peer[122] 	lookupHopsSig:mean 	15.666666666667
scalar Network.dyn_peer[123] 	lookupTimeSig:mean 	2.56
scalar Network.dyn_peer[123] 	lookupStabilitySig:mean 	0.81875492967665
scalar Network.dyn_peer[123] 	lookupHopsSig:mean 	24.8
scalar Network.dyn_peer[124] 	lookupTimeSig:mean 	1.75
scalar Network.dyn_peer[124] 	lookupStabilitySig:mean 	0.80007268139161
scalar Network.dyn_peer[124] 	lookupHopsSig:mean 	16.625
scalar Network.dyn_peer[125] 	lookupTimeSig:mean 	2.975
scalar Network.dyn_peer[125] 	lookupStabilitySig:mean 	0.87593826185912
scalar Network.dyn_peer[125] 	lookupHopsSig:mean 	29
scalar Network.dyn_peer[126] 	lookupTimeSig:mean 	2.3333333333333
scalar Network.dyn_peer[126] 	lookupStabilitySig:mean 	0.81872448560575
scalar Network.dyn_peer[126] 	lookupHopsSig:mean 	22.444444444444
scalar Network.dyn_peer[127] 	lookupTimeSig:mean 	3.3
scalar Network.dyn_peer[127] 	lookupStabilitySig:mean 	0.41081081330776
scalar Network.dyn_peer[127] 	lookupHopsSig:mean 	32.5
scalar Network.dyn_peer[128] 	lookupTimeSig:mean 	3.7
scalar Network.dyn_peer[128] 	lookupStabilitySig:mean 	0.93058740086854
scalar Network.dyn_peer[128] 	lookupHopsSig:mean 	36.2
scalar Network.dyn_peer[129] 	lookupTimeSig:mean 	1.7
scalar Network.dyn_peer[129] 	lookupStabilitySig:mean 	0.17352941632271
scalar Network.dyn_peer[129] 	lookupHopsSig:mean 	16.5
scalar Network.dyn_peer[130] 	lookupTimeSig:mean 	2.32
scalar Network.dyn_peer[130] 	lookupStabilitySig:mean 	0.73104938939214
scalar Network.dyn_peer[130] 	lookupHopsSig:mean 	22.4
scalar Network.dyn_peer[131] 	lookupTimeSig:mean 	2.14
scalar Network.dyn_peer[131] 	lookupStabilitySig:mean 	0.78835483938456
scalar Network.dyn_peer[131] 	lookupHopsSig:mean 	20.6
scalar Network.dyn_peer[132] 	lookupTimeSig:mean 	1.8222222222222
scalar Network.dyn_peer[132] 	lookupStabilitySig:mean 	0.93786259013642
scalar Network.dyn_peer[132] 	lookupHopsSig:mean 	17.333333333333
scalar Network.dyn_peer[133] 	lookupTimeSig:mean 	1.95
scalar Network.dyn_peer[133] 	lookupStabilitySig:mean 	0.17361089400947
scalar Network.dyn_peer[133] 	lookupHopsSig:mean 	18.75
scalar Network.dyn_peer[134] 	lookupTimeSig:mean 	1.28
scalar Network.dyn_peer[134] 	lookupStabilitySig:mean 	0.32313823252916
scalar Network.dyn_peer[134] 	lookupHopsSig:mean 	12
scalar Network.dyn_peer[135] 	lookupTimeSig:mean 	2.15
scalar Network.dyn_peer[135] 	lookupStabilitySig:mean 	0.88329000375234
scalar Network.dyn_peer[135] 	lookupHopsSig:mean 	20.625
scalar Network.dyn_peer[136] 	lookupTimeSig:mean 	1.74
scalar Network.dyn_peer[136] 	lookupStabilitySig:mean 	0.45613540038466
scalar Network.dyn_peer[136] 	lookupHopsSig:mean 	16.6
scalar Network.dyn_peer[137] 	lookupTimeSig:mean 	2.4666666666667
scalar Network.dyn_peer[137] 	lookupStabilitySig:mean 	0.2364656329155
scalar Network.dyn_peer[137] 	lookupHopsSig:mean 	24
scalar Network.dyn_peer[138] 	lookupTimeSig:mean 	1.86
scalar Network.dyn_peer[138] 	lookupStabilitySig:mean 	0.83871034989133
scalar Network.dyn_peer[138] 	lookupHopsSig:mean 	17.7
scalar Network.dyn_peer[139] 	lookupTimeSig:mean 	1.525
scalar Network.dyn_peer[139] 	lookupStabilitySig:mean 	0.48349419236183
scalar Network.dyn_peer[139] 	lookupHopsSig:mean 	14.5
scalar Network.dyn_peer[140] 	lookupTimeSig:mean 	1.68
scalar Network.dyn_peer[140] 	lookupStabilitySig:mean 	0.63708893060684
scalar Network.dyn_peer[140] 	lookupHopsSig:mean 	16
scalar Network.dyn_peer[141] 	lookupTimeSig:mean 	4.65
scalar Network.dyn_peer[141] 	lookupStabilitySig:mean 	0.53609708696604
scalar Network.dyn_peer[141] 	lookupHopsSig:mean 	46
scalar Network.dyn_peer[142] 	lookupTimeSig:mean 	1.875
scalar Network.dyn_peer[142] 	lookupStabilitySig:mean 	0.26252704113722
scalar Network.dyn_peer[142] 	lookupHopsSig:mean 	18
scalar Network.dyn_peer[143] 	lookupTimeSig:mean 	0.82
scalar Network.dyn_peer[143] 	lookupStabilitySig:mean 	0.36507668569684
scalar Network.dyn_peer[143] 	lookupHopsSig:mean 	7.4
scalar Network.dyn_peer[144] 	lookupTimeSig:mean 	2.05
scalar Network.dyn_peer[144] 	lookupStabilitySig:mean 	0.61133751583596
scalar Network.dyn_peer[144] 	lookupHopsSig:mean 	19.666666666667
scalar Network.dyn_peer[145] 	lookupTimeSig:mean 	3
scalar Network.dyn_peer[145] 	lookupStabilitySig:mean 	0.25443262606859
scalar Network.dyn_peer[145] 	lookupHopsSig:mean 	29.5
scalar Network.dyn_peer[146] 	lookupTimeSig:mean 	2.5285714285714
scalar Network.dyn_peer[146] 	lookupStabilitySig:mean 	0.93845528430705
scalar Network.dyn_peer[146] 	lookupHopsSig:mean 	24.428571428571
scalar Network.dyn_peer[147] 	lookupTimeSig:mean 	3
scalar Network.dyn_peer[147] 	lookupStabilitySig:mean 	0.20110586099327
scalar Network.dyn_peer[147] 	lookupHopsSig:mean 	29.25
scalar Network.dyn_peer[148] 	lookupTimeSig:mean 	4.2666666666667
scalar Network.dyn_peer[148] 	lookupStabilitySig:mean 	0.41152093807856
scalar Network.dyn_peer[148] 	lookupHopsSig:mean 	42
scalar Network.dyn_peer[149] 	lookupTimeSig:mean 	1.2142857142857
scalar Network.dyn_peer[149] 	lookupStabilitySig:mean 	0.58586696428912
scalar Network.dyn_peer[149] 	lookupHopsSig:mean 	11.285714285714
scalar Network.dyn_peer[150] 	lookupTimeSig:mean 	3.0666666666667
scalar Network.dyn_peer[150] 	lookupStabilitySig:mean 	0.92065348351995
scalar Network.dyn_peer[150] 	lookupHopsSig:mean 	29.833333333333
scalar Network.dyn_peer[151] 	lookupTimeSig:mean 	1.5
scalar Network.dyn_peer[151] 	lookupStabilitySig:mean 	0.32847789302468
scalar Network.dyn_peer[151] 	lookupHopsSig:mean 	14.25
scalar Network.dyn_peer[152] 	lookupTimeSig:mean 	2.4
scalar Network.dyn_peer[152] 	lookupStabilitySig:mean 	0.53315832093358
scalar Network.dyn_peer[152] 	lookupHopsSig:mean 	23.5
scalar Network.dyn_peer[153] 	lookupTimeSig:mean 	0.97272727272727
scalar Network.dyn_peer[153] 	lookupStabilitySig:mean 	0.73665772869506
scalar Network.dyn_peer[153] 	lookupHopsSig:mean 	8.8181818181818
scalar Network.dyn_peer[154] 	lookupTimeSig:mean 	1.5
scalar Network.dyn_peer[154] 	lookupStabilitySig:mean 	0.96686404571907
scalar Network.dyn_peer[154] 	lookupHopsSig:mean 	14.083333333333
scalar Network.dyn_peer[155] 	lookupTimeSig:mean 	3.2333333333333
scalar Network.dyn_peer[155] 	lookupStabilitySig:mean 	0.72653241083026
scalar Network.dyn_peer[155] 	lookupHopsSig:mean 	31.666666666667
scalar Network.dyn_peer[156] 	lookupTimeSig:mean 	2.95
scalar Network.dyn_peer[156] 	lookupStabilitySig:mean 	0.8790614712052
scalar Network.dyn_peer[156] 	lookupHopsSig:mean 	28.75
scalar Network.dyn_peer[157] 	lookupTimeSig:mean 	2.42
scalar Network.dyn_peer[157] 	lookupStabilitySig:mean 	0.89718514531851
scalar Network.dyn_peer[157] 	lookupHopsSig:mean 	23.4
scalar Network.dyn_peer[158] 	lookupTimeSig:mean 	2.75
scalar Network.dyn_peer[158] 	lookupStabilitySig:mean 	0.88955735974014
scalar Network.dyn_peer[158] 	lookupHopsSig:mean 	26.75
scalar Network.dyn_peer[159] 	lookupTimeSig:mean 	1.68
scalar Network.dyn_peer[159] 	lookupStabilitySig:mean 	0.76699300538749
scalar Network.dyn_peer[159] 	lookupHopsSig:mean 	16
scalar Network.dyn_peer[160] 	lookupTimeSig:mean 	1.8666666666667
scalar Network.dyn_peer[160] 	lookupStabilitySig:mean 	0.66452077807238
scalar Network.dyn_peer[160] 	lookupHopsSig:mean 	17.833333333333
scalar Network.dyn_peer[161] 	lookupTimeSig:mean 	2.1142857142857
scalar Network.dyn_peer[161] 	lookupStabilitySig:mean 	0.89324351865798
scalar Network.dyn_peer[161] 	lookupHopsSig:mean 	20.285714285714
scalar Network.dyn_peer[162] 	lookupTimeSig:mean 	2.725
scalar Network.dyn_peer[162] 	lookupStabilitySig:mean 	0.26631096377969
scalar Network.dyn_peer[162] 	lookupHopsSig:mean 	26.5
scalar Network.dyn_peer[163] 	lookupTimeSig:mean 	1.5285714285714
scalar Network.dyn_peer[163] 	lookupStabilitySig:mean 	0.51115546934307
scalar Network.dyn_peer[163] 	lookupHopsSig:mean 	14.428571428571
scalar Network.dyn_peer[164] 	lookupTimeSig:mean 	2.36
scalar Network.dyn_peer[164] 	lookupStabilitySig:mean 	0.86073039919138
scalar Network.dyn_peer[164] 	lookupHopsSig:mean 	22.8
scalar Network.dyn_peer[165] 	lookupTimeSig:mean 	2.4
scalar Network.dyn_peer[165] 	lookupStabilitySig:mean 	0.92944911175541
scalar Network.dyn_peer[165] 	lookupHopsSig:mean 	23.142857142857
scalar Network.dyn_peer[166] 	lookupTimeSig:mean 	1.7666666666667
scalar Network.dyn_peer[166] 	lookupStabilitySig:mean 	0.62919324326018
scalar Network.dyn_peer[166] 	lookupHopsSig:mean 	16.833333333333
scalar Network.dyn_peer[167] 	lookupTimeSig:mean 	2.125
scalar Network.dyn_peer[167] 	lookupStabilitySig:mean 	0.6076422072947
scalar Network.dyn_peer[167] 	lookupHopsSig:mean 	20.5
scalar Network.dyn_peer[168] 	lookupTimeSig:mean 	1.0363636363636
scalar Network.dyn_peer[168] 	lookupStabilitySig:mean 	0.72179404108531
scalar Network.dyn_peer[168] 	lookupHopsSig:mean 	9.4545454545455
scalar Network.dyn_peer[169] 	lookupTimeSig:mean 	1.5
scalar Network.dyn_peer[169] 	lookupStabilitySig:mean 	0.27453347854316
scalar Network.dyn_peer[169] 	lookupHopsSig:mean 	14.25
scalar Network.dyn_peer[170] 	lookupTimeSig:mean 	1.3
scalar Network.dyn_peer[170] 	lookupStabilitySig:mean 	0.45383838862181
scalar Network.dyn_peer[170] 	lookupHopsSig:mean 	12.2
scalar Network.dyn_peer[171] 	lookupTimeSig:mean 	1.6333333333333
scalar Network.dyn_peer[171] 	lookupStabilitySig:mean 	0.46675046036641
scalar Network.dyn_peer[171] 	lookupHopsSig:mean 	15.5
scalar Network.dyn_peer[172] 	lookupTimeSig:mean 	1.7222222222222
scalar Network.dyn_peer[172] 	lookupStabilitySig:mean 	0.80172902873407
scalar Network.dyn_peer[172] 	lookupHopsSig:mean 	16.333333333333
scalar Network.dyn_peer[173] 	lookupTimeSig:mean 	1.9333333333333
scalar Network.dyn_peer[173] 	lookupStabilitySig:mean 	0.95909239468165
scalar Network.dyn_peer[173] 	lookupHopsSig:mean 	18.416666666667
scalar Network.dyn_peer[174] 	lookupTimeSig:mean 	1.3666666666667
scalar Network.dyn_peer[174] 	lookupStabilitySig:mean 	0.85577146527875
scalar Network.dyn_peer[174] 	lookupHopsSig:mean 	12.777777777778
scalar Network.dyn_peer[175] 	lookupTimeSig:mean 	0.82
scalar Network.dyn_peer[175] 	lookupStabilitySig:mean 	0.44654273167253
scalar Network.dyn_peer[175] 	lookupHopsSig:mean 	7.4
scalar Network.dyn_peer[176] 	lookupTimeSig:mean 	2.1375
scalar Network.dyn_peer[176] 	lookupStabilitySig:mean 	0.76366913696984
scalar Network.dyn_peer[176] 	lookupHopsSig:mean 	20.5
scalar Network.dyn_peer[177] 	lookupTimeSig:mean 	2.5
scalar Network.dyn_peer[177] 	lookupStabilitySig:mean 	0.94495917898085
scalar Network.dyn_peer[177] 	lookupHopsSig:mean 	24.111111111111
scalar Network.dyn_peer[178] 	lookupTimeSig:mean 	1.5666666666667
scalar Network.dyn_peer[178] 	lookupStabilitySig:mean 	0.90489314858698
scalar Network.dyn_peer[178] 	lookupHopsSig:mean 	14.777777777778
scalar Network.dyn_peer[179] 	lookupTimeSig:mean 	1.8875
scalar Network.dyn_peer[179] 	lookupStabilitySig:mean 	0.68042664875975
scalar Network.dyn_peer[179] 	lookupHopsSig:mean 	18
scalar Network.dyn_peer[180] 	lookupTimeSig:mean 	1.7666666666667
scalar Network.dyn_peer[180] 	lookupStabilitySig:mean 	0.91650327357153
scalar Network.dyn_peer[180] 	lookupHopsSig:mean 	16.833333333333
scalar Network.dyn_peer[181] 	lookupTimeSig:mean 	2.24
scalar Network.dyn_peer[181] 	lookupStabilitySig:mean 	0.78602062985301
scalar Network.dyn_peer[181] 	lookupHopsSig:mean 	21.6
scalar Network.dyn_peer[182] 	lookupTimeSig:mean 	1.9166666666667
scalar Network.dyn_peer[182] 	lookupStabilitySig:mean 	0.6578607019037
scalar Network.dyn_peer[182] 	lookupHopsSig:mean 	18.333333333333
scalar Network.dyn_peer[183] 	lookupTimeSig:mean 	2.5
scalar Network.dyn_peer[183] 	lookupStabilitySig:mean 	0.58678699098527
scalar Network.dyn_peer[183] 	lookupHopsSig:mean 	24.25
scalar Network.dyn_peer[184] 	lookupTimeSig:mean 	1.2636363636364
scalar Network.dyn_peer[184] 	lookupStabilitySig:mean 	0.76108132031831
scalar Network.dyn_peer[184] 	lookupHopsSig:mean 	11.727272727273
scalar Network.dyn_peer[185] 	lookupTimeSig:mean 	1.7714285714286
scalar Network.dyn_peer[185] 	lookupStabilitySig:mean 	0.76919455912762
scalar Network.dyn_peer[185] 	lookupHopsSig:mean 	16.857142857143
scalar Network.dyn_peer[186] 	lookupTimeSig:mean 	5.9
scalar Network.dyn_peer[186] 	lookupStabilitySig:mean 	0.30027859658003
scalar Network.dyn_peer[186] 	lookupHopsSig:mean 	58.5
scalar Network.dyn_peer[187] 	lookupTimeSig:mean 	2.05
scalar Network.dyn_peer[187] 	lookupStabilitySig:mean 	0.41096656210721
scalar Network.dyn_peer[187] 	lookupHopsSig:mean 	19.75
scalar Network.dyn_peer[188] 	lookupTimeSig:mean 	3.7666666666667
scalar Network.dyn_peer[188] 	lookupStabilitySig:mean 	0.70798763881127
scalar Network.dyn_peer[188] 	lookupHopsSig:mean 	37
scalar Network.dyn_peer[189] 	lookupTimeSig:mean 	1.5625
scalar Network.dyn_peer[189] 	lookupStabilitySig:mean 	0.88124990253709
scalar Network.dyn_peer[189] 	lookupHopsSig:mean 	14.75
scalar Network.dyn_peer[190] 	lookupTimeSig:mean 	1.575
scalar Network.dyn_peer[190] 	lookupStabilitySig:mean 	0.23810101673007
scalar Network.dyn_peer[190] 	lookupHopsSig:mean 	15
scalar Network.dyn_peer[191] 	lookupTimeSig:mean 	1.8
scalar Network.dyn_peer[191] 	lookupStabilitySig:mean 	0.78301386947611
scalar Network.dyn_peer[191] 	lookupHopsSig:mean 	17.142857142857
scalar Network.dyn_peer[192] 	lookupTimeSig:mean 	2.06
scalar Network.dyn_peer[192] 	lookupStabilitySig:mean 	0.69239846840501
scalar Network.dyn_peer[192] 	lookupHopsSig:mean 	19.8
scalar Network.dyn_peer[193] 	lookupTimeSig:mean 	1.8
scalar Network.dyn_peer[193] 	lookupStabilitySig:mean 	0.76880948032652
scalar Network.dyn_peer[193] 	lookupHopsSig:mean 	17.142857142857
scalar Network.dyn_peer[194] 	lookupTimeSig:mean 	1.4714285714286
scalar Network.dyn_peer[194] 	lookupStabilitySig:mean 	0.60971491564331
scalar Network.dyn_peer[194] 	lookupHopsSig:mean 	13.857142857143
scalar Network.dyn_peer[195] 	lookupTimeSig:mean 	2.1
scalar Network.dyn_peer[195] 	lookupStabilitySig:mean 	0.29558232426643
scalar Network.dyn_peer[195] 	lookupHopsSig:mean 	20.333333333333
scalar Network.dyn_peer[196] 	lookupTimeSig:mean 	3.3666666666667
scalar Network.dyn_peer[196] 	lookupStabilitySig:mean 	0.89111711705724
scalar Network.dyn_peer[196] 	lookupHopsSig:mean 	33
scalar Network.dyn_peer[197] 	lookupTimeSig:mean 	2.6
scalar Network.dyn_peer[197] 	lookupStabilitySig:mean 	0.8000666577369
scalar Network.dyn_peer[197] 	lookupHopsSig:mean 	25.2
scalar Network.dyn_peer[198] 	lookupTimeSig:mean 	1.2666666666667
scalar Network.dyn_peer[198] 	lookupStabilitySig:mean 	0.58086354844272
scalar Network.dyn_peer[198] 	lookupHopsSig:mean 	11.833333333333
scalar Network.dyn_peer[199] 	lookupTimeSig:mean 	1.4
scalar Network.dyn_peer[199] 	lookupStabilitySig:mean 	0.77564137754962
scalar Network.dyn_peer[199] 	lookupHopsSig:mean 	13.166666666667
scalar Network.dyn_peer[200] 	lookupTimeSig:mean 	1.48
scalar Network.dyn_peer[200] 	lookupStabilitySig:mean 	0.8460529402364
scalar Network.dyn_peer[200] 	lookupHopsSig:mean 	13.9
scalar Network.dyn_peer[201] 	lookupTimeSig:mean 	0.72
scalar Network.dyn_peer[201] 	lookupStabilitySig:mean 	0.53042351081967
scalar Network.dyn_peer[201] 	lookupHopsSig:mean 	6.4
scalar Network.dyn_peer[202] 	lookupTimeSig:mean 	1.84
scalar Network.dyn_peer[202] 	lookupStabilitySig:mean 	0.95753634534776
scalar Network.dyn_peer[202] 	lookupHopsSig:mean 	17.5
scalar Network.dyn_peer[203] 	lookupTimeSig:mean 	3.8333333333333
scalar Network.dyn_peer[203] 	lookupStabilitySig:mean 	0.067009930809339
scalar Network.dyn_peer[203] 	lookupHopsSig:mean 	37.666666666667
scalar Network.dyn_peer[204] 	lookupTimeSig:mean 	2.2
scalar Network.dyn_peer[204] 	lookupStabilitySig:mean 	0.9451502762321
scalar Network.dyn_peer[204] 	lookupHopsSig:mean 	21.111111111111
scalar Network.dyn_peer[205] 	lookupTimeSig:mean 	1.5
scalar Network.dyn_peer[205] 	lookupStabilitySig:mean 	0.32535612086455
scalar Network.dyn_peer[205] 	lookupHopsSig:mean 	14.333333333333
scalar Network.dyn_peer[206] 	lookupTimeSig:mean 	2.75
scalar Network.dyn_peer[206] 	lookupStabilitySig:mean 	0.64075630530715
scalar Network.dyn_peer[206] 	lookupHopsSig:mean 	27
scalar Network.dyn_peer[207] 	lookupTimeSig:mean 	1.6166666666667
scalar Network.dyn_peer[207] 	lookupStabilitySig:mean 	0.52977367738883
scalar Network.dyn_peer[207] 	lookupHopsSig:mean 	15.333333333333
scalar Network.dyn_peer[208] 	lookupTimeSig:mean 	2.25
scalar Network.dyn_peer[208] 	lookupStabilitySig:mean 	0.74455386120826
scalar Network.dyn_peer[208] 	lookupHopsSig:mean 	21.75
scalar Network.dyn_peer[209] 	lookupTimeSig:mean 	1.7
scalar Network.dyn_peer[209] 	lookupStabilitySig:mean 	0.37213622530301
scalar Network.dyn_peer[209] 	lookupHopsSig:mean 	16.333333333333
scalar Network.dyn_peer[210] 	lookupTimeSig:mean 	2
scalar Network.dyn_peer[210] 	lookupStabilitySig:mean 	0.89845050084922
scalar Network.dyn_peer[210] 	lookupHopsSig:mean 	19.111111111111
scalar Network.dyn_peer[211] 	lookupTimeSig:mean 	1.25
scalar Network.dyn_peer[211] 	lookupStabilitySig:mean 	0.26020075753331
scalar Network.dyn_peer[211] 	lookupHopsSig:mean 	11.75
scalar Network.dyn_peer[212] 	lookupTimeSig:mean 	1.9333333333333
scalar Network.dyn_peer[212] 	lookupStabilitySig:mean 	0.71545039303601
scalar Network.dyn_peer[212] 	lookupHopsSig:mean 	18.666666666667
scalar Network.dyn_peer[213] 	lookupTimeSig:mean 	4.4
scalar Network.dyn_peer[213] 	lookupStabilitySig:mean 	0.86170062671105
scalar Network.dyn_peer[213] 	lookupHopsSig:mean 	43.333333333333
scalar Network.dyn_peer[214] 	lookupTimeSig:mean 	1.9571428571429
scalar Network.dyn_peer[214] 	lookupStabilitySig:mean 	0.96344950682084
scalar Network.dyn_peer[214] 	lookupHopsSig:mean 	18.642857142857
scalar Network.dyn_peer[215] 	lookupTimeSig:mean 	1.82
scalar Network.dyn_peer[215] 	lookupStabilitySig:mean 	0.89587457766756
scalar Network.dyn_peer[215] 	lookupHopsSig:mean 	17.3
scalar Network.dyn_peer[216] 	lookupTimeSig:mean 	3.2333333333333
scalar Network.dyn_peer[216] 	lookupStabilitySig:mean 	0.94726757534469
scalar Network.dyn_peer[216] 	lookupHopsSig:mean 	31.5
scalar Network.dyn_peer[217] 	lookupTimeSig:mean 	3.95
scalar Network.dyn_peer[217] 	lookupStabilitySig:mean 	0.56413042545319
scalar Network.dyn_peer[217] 	lookupHopsSig:mean 	39
scalar Network.dyn_peer[218] 	lookupTimeSig:mean 	2.1111111111111
scalar Network.dyn_peer[218] 	lookupStabilitySig:mean 	0.91138718207367
scalar Network.dyn_peer[218] 	lookupHopsSig:mean 	20.222222222222
scalar Network.dyn_peer[219] 	lookupTimeSig:mean 	2.35
scalar Network.dyn_peer[219] 	lookupStabilitySig:mean 	0.38651093188673
scalar Network.dyn_peer[219] 	lookupHopsSig:mean 	22.75
scalar Network.dyn_peer[220] 	lookupTimeSig:mean 	0.85
scalar Network.dyn_peer[220] 	lookupStabilitySig:mean 	0.18121904879808
scalar Network.dyn_peer[220] 	lookupHopsSig:mean 	7.75
scalar Network.dyn_peer[221] 	lookupTimeSig:mean 	2.05
scalar Network.dyn_peer[221] 	lookupStabilitySig:mean 	0.57702065631747
scalar Network.dyn_peer[221] 	lookupHopsSig:mean 	19.75
scalar Network.dyn_peer[222] 	lookupTimeSig:mean 	1.8777777777778
scalar Network.dyn_peer[222] 	lookupStabilitySig:mean 	0.95149349162562
scalar Network.dyn_peer[222] 	lookupHopsSig:mean 	17.888888888889
scalar Network.dyn_peer[223] 	lookupTimeSig:mean 	1.3909090909091
scalar Network.dyn_peer[223] 	lookupStabilitySig:mean 	0.85008919958703
scalar Network.dyn_peer[223] 	lookupHopsSig:mean 	13
scalar Network.dyn_peer[224] 	lookupTimeSig:mean 	2.05
scalar Network.dyn_peer[224] 	lookupStabilitySig:mean 	0.96467757789651
scalar Network.dyn_peer[224] 	lookupHopsSig:mean 	19.583333333333
scalar Network.dyn_peer[225] 	lookupTimeSig:mean 	2.2545454545455
scalar Network.dyn_peer[225] 	lookupStabilitySig:mean 	0.88086828013713
scalar Network.dyn_peer[225] 	lookupHopsSig:mean 	21.636363636364
scalar Network.dyn_peer[226] 	lookupTimeSig:mean 	1.875
scalar Network.dyn_peer[226] 	lookupStabilitySig:mean 	0.50408354215324
scalar Network.dyn_peer[226] 	lookupHopsSig:mean 	18
scalar Network.dyn_peer[227] 	lookupTimeSig:mean 	3.0333333333333
scalar Network.dyn_peer[227] 	lookupStabilitySig:mean 	0.014262303709984
scalar Network.dyn_peer[227] 	lookupHopsSig:mean 	29.666666666667
scalar Network.dyn_peer[228] 	lookupTimeSig:mean 	1.46
scalar Network.dyn_peer[228] 	lookupStabilitySig:mean 	0.78265854306519
scalar Network.dyn_peer[228] 	lookupHopsSig:mean 	13.8
scalar Network.dyn_peer[229] 	lookupTimeSig:mean 	3.8
scalar Network.dyn_peer[229] 	lookupStabilitySig:mean 	0.71874429658055
scalar Network.dyn_peer[229] 	lookupHopsSig:mean 	37.25
scalar Network.dyn_peer[230] 	lookupTimeSig:mean 	2.725
scalar Network.dyn_peer[230] 	lookupStabilitySig:mean 	0.94796403811779
scalar Network.dyn_peer[230] 	lookupHopsSig:mean 	26.375
scalar Network.dyn_peer[231] 	lookupTimeSig:mean 	1.2333333333333
scalar Network.dyn_peer[231] 	lookupStabilitySig:mean 	0.02592592438062
scalar Network.dyn_peer[231] 	lookupHopsSig:mean 	11.666666666667
scalar Network.dyn_peer[232] 	lookupTimeSig:mean 	1.1181818181818
scalar Network.dyn_peer[232] 	lookupStabilitySig:mean 	0.6882171319078
scalar Network.dyn_peer[232] 	lookupHopsSig:mean 	10.272727272727
scalar Network.dyn_peer[233] 	lookupTimeSig:mean 	2.0285714285714
scalar Network.dyn_peer[233] 	lookupStabilitySig:mean 	0.94847671581166
scalar Network.dyn_peer[233] 	lookupHopsSig:mean 	19.428571428571
scalar Network.dyn_peer[234] 	lookupTimeSig:mean 	1.2625
scalar Network.dyn_peer[234] 	lookupStabilitySig:mean 	0.81232633441687
scalar Network.dyn_peer[234] 	lookupHopsSig:mean 	11.75
scalar Network.dyn_peer[235] 	lookupTimeSig:mean 	1.7153846153846
scalar Network.dyn_peer[235] 	lookupStabilitySig:mean 	0.967337896331
scalar Network.dyn_peer[235] 	lookupHopsSig:mean 	16.230769230769
scalar Network.dyn_peer[236] 	lookupTimeSig:mean 	3.2
scalar Network.dyn_peer[236] 	lookupStabilitySig:mean 	0.85575903207064
scalar Network.dyn_peer[236] 	lookupHopsSig:mean 	31.25
scalar Network.dyn_peer[237] 	lookupTimeSig:mean 	3.2125
scalar Network.dyn_peer[237] 	lookupStabilitySig:mean 	0.94762248906773
scalar Network.dyn_peer[237] 	lookupHopsSig:mean 	31.25
scalar Network.dyn_peer[238] 	lookupTimeSig:mean 	2.2857142857143
scalar Network.dyn_peer[238] 	lookupStabilitySig:mean 	0.93881474229108
scalar Network.dyn_peer[238] 	lookupHopsSig:mean 	22
scalar Network.dyn_peer[239] 	lookupTimeSig:mean 	1.1333333333333
scalar Network.dyn_peer[239] 	lookupStabilitySig:mean 	0.57792005004982
scalar Network.dyn_peer[239] 	lookupHopsSig:mean 	10.5
scalar Network.dyn_peer[240] 	lookupTimeSig:mean 	2.04
scalar Network.dyn_peer[240] 	lookupStabilitySig:mean 	0.36290112435818
scalar Network.dyn_peer[240] 	lookupHopsSig:mean 	19.6
scalar Network.dyn_peer[241] 	lookupTimeSig:mean 	2.45
scalar Network.dyn_peer[241] 	lookupStabilitySig:mean 	0.95475156442262
scalar Network.dyn_peer[241] 	lookupHopsSig:mean 	23.625
scalar Network.dyn_peer[242] 	lookupTimeSig:mean 	2.42
scalar Network.dyn_peer[242] 	lookupStabilitySig:mean 	0.76027020588517
scalar Network.dyn_peer[242] 	lookupHopsSig:mean 	23.4
scalar Network.dyn_peer[243] 	lookupTimeSig:mean 	1.8
scalar Network.dyn_peer[243] 	lookupStabilitySig:mean 	0.73276561181992
scalar Network.dyn_peer[243] 	lookupHopsSig:mean 	17.1
scalar Network.dyn_peer[244] 	lookupTimeSig:mean 	2.1090909090909
scalar Network.dyn_peer[244] 	lookupStabilitySig:mean 	0.94142115569081
scalar Network.dyn_peer[244] 	lookupHopsSig:mean 	20.181818181818
scalar Network.dyn_peer[245] 	lookupTimeSig:mean 	1.2222222222222
scalar Network.dyn_peer[245] 	lookupStabilitySig:mean 	0.71792184644275
scalar Network.dyn_peer[245] 	lookupHopsSig:mean 	11.333333333333
scalar Network.dyn_peer[246] 	lookupTimeSig:mean 	1.875
scalar Network.dyn_peer[246] 	lookupStabilitySig:mean 	0.35839152894914
scalar Network.dyn_peer[246] 	lookupHopsSig:mean 	18
scalar Network.dyn_peer[247] 	lookupTimeSig:mean 	1.675
scalar Network.dyn_peer[247] 	lookupStabilitySig:mean 	0.65351050300524
scalar Network.dyn_peer[247] 	lookupHopsSig:mean 	15.875
scalar Network.dyn_peer[248] 	lookupTimeSig:mean 	1.08
scalar Network.dyn_peer[248] 	lookupStabilitySig:mean 	0.38496391624212
scalar Network.dyn_peer[248] 	lookupHopsSig:mean 	10
scalar Network.dyn_peer[249] 	lookupTimeSig:mean 	1.8636363636364
scalar Network.dyn_peer[249] 	lookupStabilitySig:mean 	0.73666251778857
scalar Network.dyn_peer[249] 	lookupHopsSig:mean 	17.727272727273
scalar Network.dyn_peer[250] 	lookupTimeSig:mean 	1.48
scalar Network.dyn_peer[250] 	lookupStabilitySig:mean 	0.89118143441156
scalar Network.dyn_peer[250] 	lookupHopsSig:mean 	13.9
scalar Network.dyn_peer[251] 	lookupTimeSig:mean 	2.4833333333333
scalar Network.dyn_peer[251] 	lookupStabilitySig:mean 	0.71732520249983
scalar Network.dyn_peer[251] 	lookupHopsSig:mean 	24
scalar Network.dyn_peer[252] 	lookupTimeSig:mean 	0.85
scalar Network.dyn_peer[252] 	lookupStabilitySig:mean 	0.25862572994083
scalar Network.dyn_peer[252] 	lookupHopsSig:mean 	7.75
scalar Network.dyn_peer[253] 	lookupTimeSig:mean 	4.05
scalar Network.dyn_peer[253] 	lookupStabilitySig:mean 	0.49676869809628
scalar Network.dyn_peer[253] 	lookupHopsSig:mean 	40
scalar Network.dyn_peer[254] 	lookupTimeSig:mean 	1.9333333333333
scalar Network.dyn_peer[254] 	lookupStabilitySig:mean 	0.66531242963134
scalar Network.dyn_peer[254] 	lookupHopsSig:mean 	18.444444444444
scalar Network.dyn_peer[255] 	lookupTimeSig:mean 	3.4
scalar Network.dyn_peer[255] 	lookupStabilitySig:mean 	0.93590541444719
scalar Network.dyn_peer[255] 	lookupHopsSig:mean 	33.2
scalar Network.dyn_peer[256] 	lookupTimeSig:mean 	2.3333333333333
scalar Network.dyn_peer[256] 	lookupStabilitySig:mean 	0.043209875623385
scalar Network.dyn_peer[256] 	lookupHopsSig:mean 	22.666666666667
scalar Network.dyn_peer[257] 	lookupTimeSig:mean 	1.3
scalar Network.dyn_peer[257] 	lookupStabilitySig:mean 	0.59289894318984
scalar Network.dyn_peer[257] 	lookupHopsSig:mean 	12.166666666667
scalar Network.dyn_peer[258] 	lookupTimeSig:mean 	3.22
scalar Network.dyn_peer[258] 	lookupStabilitySig:mean 	0.95227748281322
scalar Network.dyn_peer[258] 	lookupHopsSig:mean 	31.4
scalar Network.dyn_peer[259] 	lookupTimeSig:mean 	2.95
scalar Network.dyn_peer[259] 	lookupStabilitySig:mean 	-0.072535187005997
scalar Network.dyn_peer[259] 	lookupHopsSig:mean 	29
scalar Network.dyn_peer[260] 	lookupTimeSig:mean 	2.4571428571429
scalar Network.dyn_peer[260] 	lookupStabilitySig:mean 	0.95212075047727
scalar Network.dyn_peer[260] 	lookupHopsSig:mean 	23.714285714286
scalar Network.dyn_peer[261] 	lookupTimeSig:mean 	1.975
scalar Network.dyn_peer[261] 	lookupStabilitySig:mean 	0.74310658499599
scalar Network.dyn_peer[261] 	lookupHopsSig:mean 	19
scalar Network.dyn_peer[262] 	lookupTimeSig:mean 	2.3
scalar Network.dyn_peer[262] 	lookupStabilitySig:mean 	0.77650838052588
scalar Network.dyn_peer[262] 	lookupHopsSig:mean 	22.142857142857
scalar Network.dyn_peer[263] 	lookupTimeSig:mean 	1.3833333333333
scalar Network.dyn_peer[263] 	lookupStabilitySig:mean 	0.50605928401152
scalar Network.dyn_peer[263] 	lookupHopsSig:mean 	13
scalar Network.dyn_peer[264] 	lookupTimeSig:mean 	2.6
scalar Network.dyn_peer[264] 	lookupStabilitySig:mean 	0.63041609525681
scalar Network.dyn_peer[264] 	lookupHopsSig:mean 	25.25
scalar Network.dyn_peer[265] 	lookupTimeSig:mean 	1.7
scalar Network.dyn_peer[265] 	lookupStabilitySig:mean 	0.60557230162833
scalar Network.dyn_peer[265] 	lookupHopsSig:mean 	16.142857142857
scalar Network.dyn_peer[266] 	lookupTimeSig:mean 	2.2
scalar Network.dyn_peer[266] 	lookupStabilitySig:mean 	0.95013930299319
scalar Network.dyn_peer[266] 	lookupHopsSig:mean 	21.125
scalar Network.dyn_peer[267] 	lookupTimeSig:mean 	1.45
scalar Network.dyn_peer[267] 	lookupStabilitySig:mean 	0.80882599038471
scalar Network.dyn_peer[267] 	lookupHopsSig:mean 	13.571428571429
scalar Network.dyn_peer[268] 	lookupTimeSig:mean 	1.96
scalar Network.dyn_peer[268] 	lookupStabilitySig:mean 	0.66693464815617
scalar Network.dyn_peer[268] 	lookupHopsSig:mean 	18.8
scalar Network.dyn_peer[269] 	lookupTimeSig:mean 	4.1333333333333
scalar Network.dyn_peer[269] 	lookupStabilitySig:mean 	0.81208730861545
scalar Network.dyn_peer[269] 	lookupHopsSig:mean 	40.666666666667
scalar Network.dyn_peer[270] 	lookupTimeSig:mean 	1.28
scalar Network.dyn_peer[270] 	lookupStabilitySig:mean 	0.91275144075044
scalar Network.dyn_peer[270] 	lookupHopsSig:mean 	11.9
scalar Network.dyn_peer[271] 	lookupTimeSig:mean 	2.55
scalar Network.dyn_peer[271] 	lookupStabilitySig:mean 	0.77690572353701
scalar Network.dyn_peer[271] 	lookupHopsSig:mean 	24.666666666667
scalar Network.dyn_peer[272] 	lookupTimeSig:mean 	1.525
scalar Network.dyn_peer[272] 	lookupStabilitySig:mean 	0.84835277765524
scalar Network.dyn_peer[272] 	lookupHopsSig:mean 	14.375
scalar Network.dyn_peer[273] 	lookupTimeSig:mean 	2.1
scalar Network.dyn_peer[273] 	lookupStabilitySig:mean 	0.73876317832619
scalar Network.dyn_peer[273] 	lookupHopsSig:mean 	20.1
scalar Network.dyn_peer[274] 	lookupTimeSig:mean 	1.84
scalar Network.dyn_peer[274] 	lookupStabilitySig:mean 	0.74836238883436
scalar Network.dyn_peer[274] 	lookupHopsSig:mean 	17.5
scalar Network.dyn_peer[275] 	lookupTimeSig:mean 	2.32
scalar Network.dyn_peer[275] 	lookupStabilitySig:mean 	0.5156341984868
scalar Network.dyn_peer[275] 	lookupHopsSig:mean 	22.4
scalar Network.dyn_peer[276] 	lookupTimeSig:mean 	2.26
scalar Network.dyn_peer[276] 	lookupStabilitySig:mean 	0.63632453009486
scalar Network.dyn_peer[276] 	lookupHopsSig:mean 	21.8
scalar Network.dyn_peer[277] 	lookupTimeSig:mean 	2.2416666666667
scalar Network.dyn_peer[277] 	lookupStabilitySig:mean 	0.94944880902767
scalar Network.dyn_peer[277] 	lookupHopsSig:mean 	21.5
scalar Network.dyn_peer[278] 	lookupTimeSig:mean 	1.9
scalar Network.dyn_peer[278] 	lookupStabilitySig:mean 	0.38624869473279
scalar Network.dyn_peer[278] 	lookupHopsSig:mean 	18.25
scalar Network.dyn_peer[279] 	lookupTimeSig:mean 	2.76
scalar Network.dyn_peer[279] 	lookupStabilitySig:mean 	0.90990444943309
scalar Network.dyn_peer[279] 	lookupHopsSig:mean 	26.8
scalar Network.dyn_peer[280] 	lookupTimeSig:mean 	1.3714285714286
scalar Network.dyn_peer[280] 	lookupStabilitySig:mean 	0.75052298365959
scalar Network.dyn_peer[280] 	lookupHopsSig:mean 	12.857142857143
scalar Network.dyn_peer[281] 	lookupTimeSig:mean 	2
scalar Network.dyn_peer[281] 	lookupStabilitySig:mean 	0.63879466801882
scalar Network.dyn_peer[281] 	lookupHopsSig:mean 	19.333333333333
scalar Network.dyn_peer[282] 	lookupTimeSig:mean 	3.45
scalar Network.dyn_peer[282] 	lookupStabilitySig:mean 	0.91527732019313
scalar Network.dyn_peer[282] 	lookupHopsSig:mean 	33.75
scalar Network.dyn_peer[283] 	lookupTimeSig:mean 	1.9
scalar Network.dyn_peer[283] 	lookupStabilitySig:mean 	-0.016098484396935
scalar Network.dyn_peer[283] 	lookupHopsSig:mean 	18.5
scalar Network.dyn_peer[284] 	lookupTimeSig:mean 	1.775
scalar Network.dyn_peer[284] 	lookupStabilitySig:mean 	0.64457232318819
scalar Network.dyn_peer[284] 	lookupHopsSig:mean 	17
scalar Network.dyn_peer[285] 	lookupTimeSig:mean 	2.175
scalar Network.dyn_peer[285] 	lookupStabilitySig:mean 	0.55734380707145
scalar Network.dyn_peer[285] 	lookupHopsSig:mean 	21
scalar Network.dyn_peer[286] 	lookupTimeSig:mean 	1.04
scalar Network.dyn_peer[286] 	lookupStabilitySig:mean 	0.57986824959517
scalar Network.dyn_peer[286] 	lookupHopsSig:mean 	9.6
scalar Network.dyn_peer[287] 	lookupTimeSig:mean 	2.375
scalar Network.dyn_peer[287] 	lookupStabilitySig:mean 	0.66215514903888
scalar Network.dyn_peer[287] 	lookupHopsSig:mean 	23
scalar Network.dyn_peer[288] 	lookupTimeSig:mean 	2.2857142857143
scalar Network.dyn_peer[288] 	lookupStabilitySig:mean 	0.69770375572677
scalar Network.dyn_peer[288] 	lookupHopsSig:mean 	22
scalar Network.dyn_peer[289] 	lookupTimeSig:mean 	2.1666666666667
scalar Network.dyn_peer[289] 	lookupStabilitySig:mean 	0.78221411506335
scalar Network.dyn_peer[289] 	lookupHopsSig:mean 	20.833333333333
scalar Network.dyn_peer[290] 	lookupTimeSig:mean 	1.9
scalar Network.dyn_peer[290] 	lookupStabilitySig:mean 	0.30804821848869
scalar Network.dyn_peer[290] 	lookupHopsSig:mean 	18.333333333333
scalar Network.dyn_peer[291] 	lookupTimeSig:mean 	2.35
scalar Network.dyn_peer[291] 	lookupStabilitySig:mean 	0.8106058218206
scalar Network.dyn_peer[291] 	lookupHopsSig:mean 	22.666666666667
scalar Network.dyn_peer[292] 	lookupTimeSig:mean 	1.4333333333333
scalar Network.dyn_peer[292] 	lookupStabilitySig:mean 	0.54421198678513
scalar Network.dyn_peer[292] 	lookupHopsSig:mean 	13.5
scalar Network.dyn_peer[293] 	lookupTimeSig:mean 	2.075
scalar Network.dyn_peer[293] 	lookupStabilitySig:mean 	0.62326883431524
scalar Network.dyn_peer[293] 	lookupHopsSig:mean 	20
scalar Network.dyn_peer[294] 	lookupTimeSig:mean 	1.925
scalar Network.dyn_peer[294] 	lookupStabilitySig:mean 	0.85357055952772
scalar Network.dyn_peer[294] 	lookupHopsSig:mean 	18.375
scalar Network.dyn_peer[295] 	lookupTimeSig:mean 	3.025
scalar Network.dyn_peer[295] 	lookupStabilitySig:mean 	0.4952173451893
scalar Network.dyn_peer[295] 	lookupHopsSig:mean 	29.5
scalar Network.dyn_peer[296] 	lookupTimeSig:mean 	1.9857142857143
scalar Network.dyn_peer[296] 	lookupStabilitySig:mean 	0.66505406796932
scalar Network.dyn_peer[296] 	lookupHopsSig:mean 	19
scalar Network.dyn_peer[297] 	lookupTimeSig:mean 	1.6714285714286
scalar Network.dyn_peer[297] 	lookupStabilitySig:mean 	0.77975131577945
scalar Network.dyn_peer[297] 	lookupHopsSig:mean 	15.857142857143
scalar Network.dyn_peer[298] 	lookupTimeSig:mean 	1.825
scalar Network.dyn_peer[298] 	lookupStabilitySig:mean 	0.3962430562824
scalar Network.dyn_peer[298] 	lookupHopsSig:mean 	17.5
scalar Network.dyn_peer[299] 	lookupTimeSig:mean 	2.125
scalar Network.dyn_peer[299] 	lookupStabilitySig:mean 	0.45878054853529
scalar Network.dyn_peer[299] 	lookupHopsSig:mean 	20.5
scalar Network.dyn_peer[300] 	lookupTimeSig:mean 	1.38
scalar Network.dyn_peer[300] 	lookupStabilitySig:mean 	0.86013915594667
scalar Network.dyn_peer[300] 	lookupHopsSig:mean 	12.9
scalar Network.dyn_peer[301] 	lookupTimeSig:mean 	2.3
scalar Network.dyn_peer[301] 	lookupStabilitySig:mean 	0.94426763317149
scalar Network.dyn_peer[301] 	lookupHopsSig:mean 	22.142857142857
scalar Network.dyn_peer[302] 	lookupTimeSig:mean 	2.1
scalar Network.dyn_peer[302] 	lookupStabilitySig:mean 	0.47665945688883
scalar Network.dyn_peer[302] 	lookupHopsSig:mean 	20.333333333333
scalar Network.dyn_peer[303] 	lookupTimeSig:mean 	2
scalar Network.dyn_peer[303] 	lookupStabilitySig:mean 	0.51124400645494
scalar Network.dyn_peer[303] 	lookupHopsSig:mean 	19.5
scalar Network.dyn_peer[304] 	lookupTimeSig:mean 	2.5363636363636
scalar Network.dyn_peer[304] 	lookupStabilitySig:mean 	0.91675898436965
scalar Network.dyn_peer[304] 	lookupHopsSig:mean 	24.454545454545
scalar Network.dyn_peer[305] 	lookupTimeSig:mean 	1.8
scalar Network.dyn_peer[305] 	lookupStabilitySig:mean 	0.94251685100608
scalar Network.dyn_peer[305] 	lookupHopsSig:mean 	17.071428571429
scalar Network.dyn_peer[306] 	lookupTimeSig:mean 	2.625
scalar Network.dyn_peer[306] 	lookupStabilitySig:mean 	0.46673719398677
scalar Network.dyn_peer[306] 	lookupHopsSig:mean 	25.5
scalar Network.dyn_peer[307] 	lookupTimeSig:mean 	2.5111111111111
scalar Network.dyn_peer[307] 	lookupStabilitySig:mean 	0.83660802384838
scalar Network.dyn_peer[307] 	lookupHopsSig:mean 	24.222222222222
scalar Network.dyn_peer[308] 	lookupTimeSig:mean 	2.925
scalar Network.dyn_peer[308] 	lookupStabilitySig:mean 	0.89402655884624
scalar Network.dyn_peer[308] 	lookupHopsSig:mean 	28.5
scalar Network.dyn_peer[309] 	lookupTimeSig:mean 	3.8
scalar Network.dyn_peer[309] 	lookupStabilitySig:mean 	0.24632494027416
scalar Network.dyn_peer[309] 	lookupHopsSig:mean 	37.333333333333
scalar Network.dyn_peer[310] 	lookupTimeSig:mean 	1.925
scalar Network.dyn_peer[310] 	lookupStabilitySig:mean 	0.89133257168578
scalar Network.dyn_peer[310] 	lookupHopsSig:mean 	18.375
scalar Network.dyn_peer[311] 	lookupTimeSig:mean 	1.3571428571429
scalar Network.dyn_peer[311] 	lookupStabilitySig:mean 	0.79531713022983
scalar Network.dyn_peer[311] 	lookupHopsSig:mean 	12.642857142857
scalar Network.dyn_peer[312] 	lookupTimeSig:mean 	1.62
scalar Network.dyn_peer[312] 	lookupStabilitySig:mean 	0.55323201566935
scalar Network.dyn_peer[312] 	lookupHopsSig:mean 	15.4
scalar Network.dyn_peer[313] 	lookupTimeSig:mean 	1.8714285714286
scalar Network.dyn_peer[313] 	lookupStabilitySig:mean 	0.78007647102433
scalar Network.dyn_peer[313] 	lookupHopsSig:mean 	17.857142857143
scalar Network.dyn_peer[314] 	lookupTimeSig:mean 	3
scalar Network.dyn_peer[314] 	lookupStabilitySig:mean 	0.45551006495953
scalar Network.dyn_peer[314] 	lookupHopsSig:mean 	29.5
scalar Network.dyn_peer[315] 	lookupTimeSig:mean 	1.925
scalar Network.dyn_peer[315] 	lookupStabilitySig:mean 	0.50911588221788
scalar Network.dyn_peer[315] 	lookupHopsSig:mean 	18.5
scalar Network.dyn_peer[316] 	lookupTimeSig:mean 	1.74
scalar Network.dyn_peer[316] 	lookupStabilitySig:mean 	0.74556092061102
scalar Network.dyn_peer[316] 	lookupHopsSig:mean 	16.6
scalar Network.dyn_peer[317] 	lookupTimeSig:mean 	2.025
scalar Network.dyn_peer[317] 	lookupStabilitySig:mean 	0.75271651032381
scalar Network.dyn_peer[317] 	lookupHopsSig:mean 	19.5
scalar Network.dyn_peer[318] 	lookupTimeSig:mean 	5.6
scalar Network.dyn_peer[318] 	lookupStabilitySig:mean 	0.84957687743008
scalar Network.dyn_peer[318] 	lookupHopsSig:mean 	55.5
scalar Network.dyn_peer[319] 	lookupTimeSig:mean 	2
scalar Network.dyn_peer[319] 	lookupStabilitySig:mean 	0.60555555423101
scalar Network.dyn_peer[319] 	lookupHopsSig:mean 	19.333333333333
scalar Network.dyn_peer[320] 	lookupTimeSig:mean 	3.05
scalar Network.dyn_peer[320] 	lookupStabilitySig:mean 	-0.056441694498062
scalar Network.dyn_peer[320] 	lookupHopsSig:mean 	30
scalar Network.dyn_peer[321] 	lookupTimeSig:mean 	1.45
scalar Network.dyn_peer[321] 	lookupStabilitySig:mean 	0.7536180736497
scalar Network.dyn_peer[321] 	lookupHopsSig:mean 	13.625
scalar Network.dyn_peer[322] 	lookupTimeSig:mean 	2.0727272727273
scalar Network.dyn_peer[322] 	lookupStabilitySig:mean 	0.87267530472441
scalar Network.dyn_peer[322] 	lookupHopsSig:mean 	19.818181818182
scalar Network.dyn_peer[323] 	lookupTimeSig:mean 	1.3625
scalar Network.dyn_peer[323] 	lookupStabilitySig:mean 	0.62191132130101
scalar Network.dyn_peer[323] 	lookupHopsSig:mean 	12.75
scalar Network.dyn_peer[324] 	lookupTimeSig:mean 	1.69
scalar Network.dyn_peer[324] 	lookupStabilitySig:mean 	0.94780645971186
scalar Network.dyn_peer[324] 	lookupHopsSig:mean 	16
scalar Network.dyn_peer[325] 	lookupTimeSig:mean 	2.7666666666667
scalar Network.dyn_peer[325] 	lookupStabilitySig:mean 	0.94162196778537
scalar Network.dyn_peer[325] 	lookupHopsSig:mean 	26.833333333333
scalar Network.dyn_peer[326] 	lookupTimeSig:mean 	1.5285714285714
scalar Network.dyn_peer[326] 	lookupStabilitySig:mean 	0.8399351593107
scalar Network.dyn_peer[326] 	lookupHopsSig:mean 	14.428571428571
scalar Network.dyn_peer[327] 	lookupTimeSig:mean 	1.86
scalar Network.dyn_peer[327] 	lookupStabilitySig:mean 	0.97188225863501
scalar Network.dyn_peer[327] 	lookupHopsSig:mean 	17.666666666667
scalar Network.dyn_peer[328] 	lookupTimeSig:mean 	2.625
scalar Network.dyn_peer[328] 	lookupStabilitySig:mean 	0.59634078107774
scalar Network.dyn_peer[328] 	lookupHopsSig:mean 	25.5
scalar Network.dyn_peer[329] 	lookupTimeSig:mean 	2.1571428571429
scalar Network.dyn_peer[329] 	lookupStabilitySig:mean 	0.95385099920843
scalar Network.dyn_peer[329] 	lookupHopsSig:mean 	20.714285714286
scalar Network.dyn_peer[330] 	lookupTimeSig:mean 	2.55
scalar Network.dyn_peer[330] 	lookupStabilitySig:mean 	0.44240026082844
scalar Network.dyn_peer[330] 	lookupHopsSig:mean 	24.75
scalar Network.dyn_peer[331] 	lookupTimeSig:mean 	2.36
scalar Network.dyn_peer[331] 	lookupStabilitySig:mean 	0.36881380230188
scalar Network.dyn_peer[331] 	lookupHopsSig:mean 	22.8
scalar Network.dyn_peer[332] 	lookupTimeSig:mean 	3.1
scalar Network.dyn_peer[332] 	lookupStabilitySig:mean 	0.66942865774035
scalar Network.dyn_peer[332] 	lookupHopsSig:mean 	30.333333333333
scalar Network.dyn_peer[333] 	lookupTimeSig:mean 	2.3
scalar Network.dyn_peer[333] 	lookupStabilitySig:mean 	0.8736192745467
scalar Network.dyn_peer[333] 	lookupHopsSig:mean 	22.166666666667
scalar Network.dyn_peer[334] 	lookupTimeSig:mean 	2.075
scalar Network.dyn_peer[334] 	lookupStabilitySig:mean 	0.33189124241471
scalar Network.dyn_peer[334] 	lookupHopsSig:mean 	20
scalar Network.dyn_peer[335] 	lookupTimeSig:mean 	2.4
scalar Network.dyn_peer[335] 	lookupStabilitySig:mean 	0.13290784756343
scalar Network.dyn_peer[335] 	lookupHopsSig:mean 	23.333333333333
scalar Network.dyn_peer[336] 	lookupTimeSig:mean 	1.3
scalar Network.dyn_peer[336] 	lookupStabilitySig:mean 	0.46355891302228
scalar Network.dyn_peer[336] 	lookupHopsSig:mean 	12.2
scalar Network.dyn_peer[337] 	lookupTimeSig:mean 	2.3142857142857
scalar Network.dyn_peer[337] 	lookupStabilitySig:mean 	0.93862448646022
scalar Network.dyn_peer[337] 	lookupHopsSig:mean 	22.285714285714
scalar Network.dyn_peer[338] 	lookupTimeSig:mean 	2.65
scalar Network.dyn_peer[338] 	lookupStabilitySig:mean 	0.49936042353511
scalar Network.dyn_peer[338] 	lookupHopsSig:mean 	25.75
scalar Network.dyn_peer[339] 	lookupTimeSig:mean 	5.7333333333333
scalar Network.dyn_peer[339] 	lookupStabilitySig:mean 	0.91644287357728
scalar Network.dyn_peer[339] 	lookupHopsSig:mean 	56.666666666667
scalar Network.dyn_peer[340] 	lookupTimeSig:mean 	1.64
scalar Network.dyn_peer[340] 	lookupStabilitySig:mean 	0.51088793147355
scalar Network.dyn_peer[340] 	lookupHopsSig:mean 	15.6
scalar Network.dyn_peer[341] 	lookupTimeSig:mean 	2.88
scalar Network.dyn_peer[341] 	lookupStabilitySig:mean 	0.93125047422945
scalar Network.dyn_peer[341] 	lookupHopsSig:mean 	28
scalar Network.dyn_peer[342] 	lookupTimeSig:mean 	1.6
scalar Network.dyn_peer[342] 	lookupStabilitySig:mean 	0.68469743696707
scalar Network.dyn_peer[342] 	lookupHopsSig:mean 	15.142857142857
scalar Network.dyn_peer[343] 	lookupTimeSig:mean 	1.18
scalar Network.dyn_peer[343] 	lookupStabilitySig:mean 	0.55857397913933
scalar Network.dyn_peer[343] 	lookupHopsSig:mean 	11
scalar Network.dyn_peer[344] 	lookupTimeSig:mean 	3.2333333333333
scalar Network.dyn_peer[344] 	lookupStabilitySig:mean 	0.51248518191278
scalar Network.dyn_peer[344] 	lookupHopsSig:mean 	31.666666666667
scalar Network.dyn_peer[345] 	lookupTimeSig:mean 	1.55
scalar Network.dyn_peer[345] 	lookupStabilitySig:mean 	0.70332090556622
scalar Network.dyn_peer[345] 	lookupHopsSig:mean 	14.75
scalar Network.dyn_peer[346] 	lookupTimeSig:mean 	2.84
scalar Network.dyn_peer[346] 	lookupStabilitySig:mean 	0.9454773241654
scalar Network.dyn_peer[346] 	lookupHopsSig:mean 	27.6
scalar Network.dyn_peer[347] 	lookupTimeSig:mean 	1.7461538461538
scalar Network.dyn_peer[347] 	lookupStabilitySig:mean 	0.86527830598733
scalar Network.dyn_peer[347] 	lookupHopsSig:mean 	16.538461538462
scalar Network.dyn_peer[348] 	lookupTimeSig:mean 	2.9375
scalar Network.dyn_peer[348] 	lookupStabilitySig:mean 	0.64054524665698
scalar Network.dyn_peer[348] 	lookupHopsSig:mean 	28.5
scalar Network.dyn_peer[349] 	lookupTimeSig:mean 	1
scalar Network.dyn_peer[349] 	lookupStabilitySig:mean 	0.23333333432674
scalar Network.dyn_peer[349] 	lookupHopsSig:mean 	9.5
scalar Network.dyn_peer[350] 	lookupTimeSig:mean 	2.3285714285714
scalar Network.dyn_peer[350] 	lookupStabilitySig:mean 	0.93349632308153
scalar Network.dyn_peer[350] 	lookupHopsSig:mean 	22.428571428571
scalar Network.dyn_peer[351] 	lookupTimeSig:mean 	1.9444444444444
scalar Network.dyn_peer[351] 	lookupStabilitySig:mean 	0.82524665895229
scalar Network.dyn_peer[351] 	lookupHopsSig:mean 	18.555555555556
scalar Network.dyn_peer[352] 	lookupTimeSig:mean 	1.74
scalar Network.dyn_peer[352] 	lookupStabilitySig:mean 	0.69243947155774
scalar Network.dyn_peer[352] 	lookupHopsSig:mean 	16.6
scalar Network.dyn_peer[353] 	lookupTimeSig:mean 	1.66
scalar Network.dyn_peer[353] 	lookupStabilitySig:mean 	0.40966725870967
scalar Network.dyn_peer[353] 	lookupHopsSig:mean 	15.8
scalar Network.dyn_peer[354] 	lookupTimeSig:mean 	6.35
scalar Network.dyn_peer[354] 	lookupStabilitySig:mean 	0.20703126490116
scalar Network.dyn_peer[354] 	lookupHopsSig:mean 	63
scalar Network.dyn_peer[355] 	lookupTimeSig:mean 	2
scalar Network.dyn_peer[355] 	lookupStabilitySig:mean 	0.48997752219439
scalar Network.dyn_peer[355] 	lookupHopsSig:mean 	19.2
scalar Network.dyn_peer[356] 	lookupTimeSig:mean 	2.7
scalar Network.dyn_peer[356] 	lookupStabilitySig:mean 	0.23926639308532
scalar Network.dyn_peer[356] 	lookupHopsSig:mean 	26.333333333333
scalar Network.dyn_peer[357] 	lookupTimeSig:mean 	1.48
scalar Network.dyn_peer[357] 	lookupStabilitySig:mean 	0.59125882275403
scalar Network.dyn_peer[357] 	lookupHopsSig:mean 	14
scalar Network.dyn_peer[358] 	lookupTimeSig:mean 	2.45
scalar Network.dyn_peer[358] 	lookupStabilitySig:mean 	0.4139593206346
scalar Network.dyn_peer[358] 	lookupHopsSig:mean 	23.75
scalar Network.dyn_peer[359] 	lookupTimeSig:mean 	1.55
scalar Network.dyn_peer[359] 	lookupStabilitySig:mean 	0.79032534640282
scalar Network.dyn_peer[359] 	lookupHopsSig:mean 	14.625
scalar Network.dyn_peer[360] 	lookupTimeSig:mean 	2.58
scalar Network.dyn_peer[360] 	lookupStabilitySig:mean 	0.57786073833704
scalar Network.dyn_peer[360] 	lookupHopsSig:mean 	25
scalar Network.dyn_peer[361] 	lookupTimeSig:mean 	1.2
scalar Network.dyn_peer[361] 	lookupStabilitySig:mean 	0.30459182336926
scalar Network.dyn_peer[361] 	lookupHopsSig:mean 	11.25
scalar Network.dyn_peer[362] 	lookupTimeSig:mean 	1.85
scalar Network.dyn_peer[362] 	lookupStabilitySig:mean 	-0.0096711814403534
scalar Network.dyn_peer[362] 	lookupHopsSig:mean 	18
scalar Network.dyn_peer[363] 	lookupTimeSig:mean 	1.5166666666667
scalar Network.dyn_peer[363] 	lookupStabilitySig:mean 	0.56701203994453
scalar Network.dyn_peer[363] 	lookupHopsSig:mean 	14.333333333333
scalar Network.dyn_peer[364] 	lookupTimeSig:mean 	3.44
scalar Network.dyn_peer[364] 	lookupStabilitySig:mean 	0.93787989541888
scalar Network.dyn_peer[364] 	lookupHopsSig:mean 	33.6
scalar Network.dyn_peer[365] 	lookupTimeSig:mean 	2.5857142857143
scalar Network.dyn_peer[365] 	lookupStabilitySig:mean 	0.95571850506323
scalar Network.dyn_peer[365] 	lookupHopsSig:mean 	25
scalar Network.dyn_peer[366] 	lookupTimeSig:mean 	1.9
scalar Network.dyn_peer[366] 	lookupStabilitySig:mean 	0.93411576196265
scalar Network.dyn_peer[366] 	lookupHopsSig:mean 	18.076923076923
scalar Network.dyn_peer[367] 	lookupTimeSig:mean 	2.4857142857143
scalar Network.dyn_peer[367] 	lookupStabilitySig:mean 	0.87590340099164
scalar Network.dyn_peer[367] 	lookupHopsSig:mean 	24
scalar Network.dyn_peer[368] 	lookupTimeSig:mean 	2.2888888888889
scalar Network.dyn_peer[368] 	lookupStabilitySig:mean 	0.95496148155588
scalar Network.dyn_peer[368] 	lookupHopsSig:mean 	22
scalar Network.dyn_peer[369] 	lookupTimeSig:mean 	1.7142857142857
scalar Network.dyn_peer[369] 	lookupStabilitySig:mean 	0.84810331097937
scalar Network.dyn_peer[369] 	lookupHopsSig:mean 	16.285714285714
scalar Network.dyn_peer[370] 	lookupTimeSig:mean 	2.0333333333333
scalar Network.dyn_peer[370] 	lookupStabilitySig:mean 	0.83374981939172
scalar Network.dyn_peer[370] 	lookupHopsSig:mean 	19.444444444444
scalar Network.dyn_peer[371] 	lookupTimeSig:mean 	2.3714285714286
scalar Network.dyn_peer[371] 	lookupStabilitySig:mean 	0.927654678002
scalar Network.dyn_peer[371] 	lookupHopsSig:mean 	22.857142857143
scalar Network.dyn_peer[372] 	lookupTimeSig:mean 	1.8166666666667
scalar Network.dyn_peer[372] 	lookupStabilitySig:mean 	0.91724703686001
scalar Network.dyn_peer[372] 	lookupHopsSig:mean 	17.25
scalar Network.dyn_peer[373] 	lookupTimeSig:mean 	1.9
scalar Network.dyn_peer[373] 	lookupStabilitySig:mean 	0.63540780637413
scalar Network.dyn_peer[373] 	lookupHopsSig:mean 	18.25
scalar Network.dyn_peer[374] 	lookupTimeSig:mean 	1.6
scalar Network.dyn_peer[374] 	lookupStabilitySig:mean 	0.76160507152478
scalar Network.dyn_peer[374] 	lookupHopsSig:mean 	15.166666666667
scalar Network.dyn_peer[375] 	lookupTimeSig:mean 	1.8909090909091
scalar Network.dyn_peer[375] 	lookupStabilitySig:mean 	0.9569609514226
scalar Network.dyn_peer[375] 	lookupHopsSig:mean 	18
scalar Network.dyn_peer[376] 	lookupTimeSig:mean 	1.5142857142857
scalar Network.dyn_peer[376] 	lookupStabilitySig:mean 	0.83492163981178
scalar Network.dyn_peer[376] 	lookupHopsSig:mean 	14.285714285714
scalar Network.dyn_peer[377] 	lookupTimeSig:mean 	1.6
scalar Network.dyn_peer[377] 	lookupStabilitySig:mean 	0.25462181866169
scalar Network.dyn_peer[377] 	lookupHopsSig:mean 	15.5
scalar Network.dyn_peer[378] 	lookupTimeSig:mean 	2.1
scalar Network.dyn_peer[378] 	lookupStabilitySig:mean 	0.74540274324162
scalar Network.dyn_peer[378] 	lookupHopsSig:mean 	20.142857142857
scalar Network.dyn_peer[379] 	lookupTimeSig:mean 	2.58
scalar Network.dyn_peer[379] 	lookupStabilitySig:mean 	0.91129384711385
scalar Network.dyn_peer[379] 	lookupHopsSig:mean 	25
scalar Network.dyn_peer[380] 	lookupTimeSig:mean 	1.15
scalar Network.dyn_peer[380] 	lookupStabilitySig:mean 	0.34271617978811
scalar Network.dyn_peer[380] 	lookupHopsSig:mean 	10.75
scalar Network.dyn_peer[381] 	lookupTimeSig:mean 	2.0363636363636
scalar Network.dyn_peer[381] 	lookupStabilitySig:mean 	0.94764454523101
scalar Network.dyn_peer[381] 	lookupHopsSig:mean 	19.454545454545
scalar Network.dyn_peer[382] 	lookupTimeSig:mean 	1.9166666666667
scalar Network.dyn_peer[382] 	lookupStabilitySig:mean 	0.71419991304477
scalar Network.dyn_peer[382] 	lookupHopsSig:mean 	18.333333333333
scalar Network.dyn_peer[383] 	lookupTimeSig:mean 	2.1
scalar Network.dyn_peer[383] 	lookupStabilitySig:mean 	0.88486222294159
scalar Network.dyn_peer[383] 	lookupHopsSig:mean 	20.125
scalar Network.dyn_peer[384] 	lookupTimeSig:mean 	0.78181818181818
scalar Network.dyn_peer[384] 	lookupStabilitySig:mean 	0.7796230905012
scalar Network.dyn_peer[384] 	lookupHopsSig:mean 	6.9090909090909
scalar Network.dyn_peer[385] 	lookupTimeSig:mean 	1.1428571428571
scalar Network.dyn_peer[385] 	lookupStabilitySig:mean 	0.80894909559616
scalar Network.dyn_peer[385] 	lookupHopsSig:mean 	10.571428571429
scalar Network.dyn_peer[386] 	lookupTimeSig:mean 	3.9333333333333
scalar Network.dyn_peer[386] 	lookupStabilitySig:mean 	0.5496618449688
scalar Network.dyn_peer[386] 	lookupHopsSig:mean 	38.666666666667
scalar Network.dyn_peer[387] 	lookupTimeSig:mean 	1.1714285714286
scalar Network.dyn_peer[387] 	lookupStabilitySig:mean 	0.58640173915774
scalar Network.dyn_peer[387] 	lookupHopsSig:mean 	10.857142857143
scalar Network.dyn_peer[388] 	lookupTimeSig:mean 	1.5666666666667
scalar Network.dyn_peer[388] 	lookupStabilitySig:mean 	0.61885556516548
scalar Network.dyn_peer[388] 	lookupHopsSig:mean 	14.833333333333
scalar Network.dyn_peer[389] 	lookupTimeSig:mean 	3.65
scalar Network.dyn_peer[389] 	lookupStabilitySig:mean 	0.83162202779204
scalar Network.dyn_peer[389] 	lookupHopsSig:mean 	35.75
scalar Network.dyn_peer[390] 	lookupTimeSig:mean 	1.4
scalar Network.dyn_peer[390] 	lookupStabilitySig:mean 	0.70632548932917
scalar Network.dyn_peer[390] 	lookupHopsSig:mean 	13.125
scalar Network.dyn_peer[391] 	lookupTimeSig:mean 	2.5
scalar Network.dyn_peer[391] 	lookupStabilitySig:mean 	0.42727272212505
scalar Network.dyn_peer[391] 	lookupHopsSig:mean 	24.5
scalar Network.dyn_peer[392] 	lookupTimeSig:mean 	1.6555555555556
scalar Network.dyn_peer[392] 	lookupStabilitySig:mean 	0.87107070328461
scalar Network.dyn_peer[392] 	lookupHopsSig:mean 	15.666666666667
scalar Network.dyn_peer[393] 	lookupTimeSig:mean 	1.0363636363636
scalar Network.dyn_peer[393] 	lookupStabilitySig:mean 	0.84485767841
scalar Network.dyn_peer[393] 	lookupHopsSig:mean 	9.4545454545455
scalar Network.dyn_peer[394] 	lookupTimeSig:mean 	1.3571428571429
scalar Network.dyn_peer[394] 	lookupStabilitySig:mean 	0.66824522108904
scalar Network.dyn_peer[394] 	lookupHopsSig:mean 	12.714285714286
scalar Network.dyn_peer[395] 	lookupTimeSig:mean 	1.6777777777778
scalar Network.dyn_peer[395] 	lookupStabilitySig:mean 	0.76936893679926
scalar Network.dyn_peer[395] 	lookupHopsSig:mean 	15.888888888889
scalar Network.dyn_peer[396] 	lookupTimeSig:mean 	0.85
scalar Network.dyn_peer[396] 	lookupStabilitySig:mean 	0.30162335932255
scalar Network.dyn_peer[396] 	lookupHopsSig:mean 	7.75
scalar Network.dyn_peer[397] 	lookupTimeSig:mean 	2.575
scalar Network.dyn_peer[397] 	lookupStabilitySig:mean 	0.59316100366414
scalar Network.dyn_peer[397] 	lookupHopsSig:mean 	25
scalar Network.dyn_peer[398] 	lookupTimeSig:mean 	1.78
scalar Network.dyn_peer[398] 	lookupStabilitySig:mean 	0.48113876469433
scalar Network.dyn_peer[398] 	lookupHopsSig:mean 	17
scalar Network.dyn_peer[399] 	lookupTimeSig:mean 	1.7
scalar Network.dyn_peer[399] 	lookupStabilitySig:mean 	0.15564375619094
scalar Network.dyn_peer[399] 	lookupHopsSig:mean 	16.333333333333
scalar Network.dyn_peer[400] 	lookupTimeSig:mean 	1.7
scalar Network.dyn_peer[400] 	lookupStabilitySig:mean 	0.7684609676168
scalar Network.dyn_peer[400] 	lookupHopsSig:mean 	16.166666666667
scalar Network.dyn_peer[401] 	lookupTimeSig:mean 	1.725
scalar Network.dyn_peer[401] 	lookupStabilitySig:mean 	0.55691924877465
scalar Network.dyn_peer[401] 	lookupHopsSig:mean 	16.5
scalar Network.dyn_peer[402] 	lookupTimeSig:mean 	1.225
scalar Network.dyn_peer[402] 	lookupStabilitySig:mean 	0.63714245334268
scalar Network.dyn_peer[402] 	lookupHopsSig:mean 	11.5
scalar Network.dyn_peer[403] 	lookupTimeSig:mean 	2
scalar Network.dyn_peer[403] 	lookupStabilitySig:mean 	0.38126223087311
scalar Network.dyn_peer[403] 	lookupHopsSig:mean 	19.2
scalar Network.dyn_peer[404] 	lookupTimeSig:mean 	1.7714285714286
scalar Network.dyn_peer[404] 	lookupStabilitySig:mean 	0.68908074099038
scalar Network.dyn_peer[404] 	lookupHopsSig:mean 	16.857142857143
scalar Network.dyn_peer[405] 	lookupTimeSig:mean 	0.93333333333333
scalar Network.dyn_peer[405] 	lookupStabilitySig:mean 	0.23993854721387
scalar Network.dyn_peer[405] 	lookupHopsSig:mean 	8.6666666666667
scalar Network.dyn_peer[406] 	lookupTimeSig:mean 	1.6833333333333
scalar Network.dyn_peer[406] 	lookupStabilitySig:mean 	0.7607189345484
scalar Network.dyn_peer[406] 	lookupHopsSig:mean 	16
scalar Network.dyn_peer[407] 	lookupTimeSig:mean 	2.16
scalar Network.dyn_peer[407] 	lookupStabilitySig:mean 	0.91517348587513
scalar Network.dyn_peer[407] 	lookupHopsSig:mean 	20.7
scalar Network.dyn_peer[408] 	lookupTimeSig:mean 	3.05
scalar Network.dyn_peer[408] 	lookupStabilitySig:mean 	0.89722148111711
scalar Network.dyn_peer[408] 	lookupHopsSig:mean 	29.666666666667
scalar Network.dyn_peer[409] 	lookupTimeSig:mean 	2.5833333333333
scalar Network.dyn_peer[409] 	lookupStabilitySig:mean 	0.90959722564245
scalar Network.dyn_peer[409] 	lookupHopsSig:mean 	25
scalar Network.dyn_peer[410] 	lookupTimeSig:mean 	2.1142857142857
scalar Network.dyn_peer[410] 	lookupStabilitySig:mean 	0.92647289730875
scalar Network.dyn_peer[410] 	lookupHopsSig:mean 	20.214285714286
scalar Network.dyn_peer[411] 	lookupTimeSig:mean 	1.7666666666667
scalar Network.dyn_peer[411] 	lookupStabilitySig:mean 	0.79492175827424
scalar Network.dyn_peer[411] 	lookupHopsSig:mean 	16.833333333333
scalar Network.dyn_peer[412] 	lookupTimeSig:mean 	1.9
scalar Network.dyn_peer[412] 	lookupStabilitySig:mean 	0.32958866283298
scalar Network.dyn_peer[412] 	lookupHopsSig:mean 	18.25
scalar Network.dyn_peer[413] 	lookupTimeSig:mean 	2.1666666666667
scalar Network.dyn_peer[413] 	lookupStabilitySig:mean 	0.86812267561133
scalar Network.dyn_peer[413] 	lookupHopsSig:mean 	20.777777777778
scalar Network.dyn_peer[414] 	lookupTimeSig:mean 	1.625
scalar Network.dyn_peer[414] 	lookupStabilitySig:mean 	0.35960111021996
scalar Network.dyn_peer[414] 	lookupHopsSig:mean 	15.5
scalar Network.dyn_peer[415] 	lookupTimeSig:mean 	3
scalar Network.dyn_peer[415] 	lookupStabilitySig:mean 	0.94442289934627
scalar Network.dyn_peer[415] 	lookupHopsSig:mean 	29.142857142857
scalar Network.dyn_peer[416] 	lookupTimeSig:mean 	1.9666666666667
scalar Network.dyn_peer[416] 	lookupStabilitySig:mean 	0.51882607738177
scalar Network.dyn_peer[416] 	lookupHopsSig:mean 	19
scalar Network.dyn_peer[417] 	lookupTimeSig:mean 	2.1833333333333
scalar Network.dyn_peer[417] 	lookupStabilitySig:mean 	0.8994636470452
scalar Network.dyn_peer[417] 	lookupHopsSig:mean 	21
scalar Network.dyn_peer[418] 	lookupTimeSig:mean 	3.55
scalar Network.dyn_peer[418] 	lookupStabilitySig:mean 	0.45783447474241
scalar Network.dyn_peer[418] 	lookupHopsSig:mean 	35
scalar Network.dyn_peer[419] 	lookupTimeSig:mean 	1.9666666666667
scalar Network.dyn_peer[419] 	lookupStabilitySig:mean 	0.71641852251358
scalar Network.dyn_peer[419] 	lookupHopsSig:mean 	18.777777777778
scalar Network.dyn_peer[420] 	lookupTimeSig:mean 	1.3416666666667
scalar Network.dyn_peer[420] 	lookupStabilitySig:mean 	0.85963186633307
scalar Network.dyn_peer[420] 	lookupHopsSig:mean 	12.5
[...]
scalar Network.dyn_peer[895] 	lookupTimeSig:mean 	2.4625
scalar Network.dyn_peer[895] 	lookupStabilitySig:mean 	0.96017838700209
scalar Network.dyn_peer[895] 	lookupHopsSig:mean 	23.75
scalar Network.dyn_peer[896] 	lookupTimeSig:mean 	1.25
scalar Network.dyn_peer[896] 	lookupStabilitySig:mean 	0.66531372629106
scalar Network.dyn_peer[896] 	lookupHopsSig:mean 	11.75
scalar Network.dyn_peer[897] 	lookupTimeSig:mean 	1.7
scalar Network.dyn_peer[897] 	lookupStabilitySig:mean 	0.85323849972337
scalar Network.dyn_peer[897] 	lookupHopsSig:mean 	16.111111111111
scalar Network.dyn_peer[898] 	lookupTimeSig:mean 	1.2
scalar Network.dyn_peer[898] 	lookupStabilitySig:mean 	0.82615740108304
scalar Network.dyn_peer[898] 	lookupHopsSig:mean 	11.25
scalar Network.dyn_peer[899] 	lookupTimeSig:mean 	1.1833333333333
scalar Network.dyn_peer[899] 	lookupStabilitySig:mean 	0.82776145186896
scalar Network.dyn_peer[899] 	lookupHopsSig:mean 	11
scalar Network.dyn_peer[900] 	lookupTimeSig:mean 	3.5
scalar Network.dyn_peer[900] 	lookupStabilitySig:mean 	0.69513937085867
scalar Network.dyn_peer[900] 	lookupHopsSig:mean 	34.333333333333
scalar Network.dyn_peer[901] 	lookupTimeSig:mean 	1.44
scalar Network.dyn_peer[901] 	lookupStabilitySig:mean 	0.78418707475066
scalar Network.dyn_peer[901] 	lookupHopsSig:mean 	13.6
scalar Network.dyn_peer[902] 	lookupTimeSig:mean 	1.4125
scalar Network.dyn_peer[902] 	lookupStabilitySig:mean 	0.8370810385095
scalar Network.dyn_peer[902] 	lookupHopsSig:mean 	13.25
scalar Network.dyn_peer[903] 	lookupTimeSig:mean 	1.6888888888889
scalar Network.dyn_peer[903] 	lookupStabilitySig:mean 	0.80778530519456
scalar Network.dyn_peer[903] 	lookupHopsSig:mean 	16
scalar Network.dyn_peer[904] 	lookupTimeSig:mean 	2.0333333333333
scalar Network.dyn_peer[904] 	lookupStabilitySig:mean 	0.95836039465697
scalar Network.dyn_peer[904] 	lookupHopsSig:mean 	19.416666666667
scalar Network.dyn_peer[905] 	lookupTimeSig:mean 	2.75
scalar Network.dyn_peer[905] 	lookupStabilitySig:mean 	0.86001839628443
scalar Network.dyn_peer[905] 	lookupHopsSig:mean 	26.75
scalar Network.dyn_peer[906] 	lookupTimeSig:mean 	1.82
scalar Network.dyn_peer[906] 	lookupStabilitySig:mean 	0.82874953374267
scalar Network.dyn_peer[906] 	lookupHopsSig:mean 	17.4
scalar Network.dyn_peer[907] 	lookupTimeSig:mean 	1.55
scalar Network.dyn_peer[907] 	lookupStabilitySig:mean 	0.63510848302394
scalar Network.dyn_peer[907] 	lookupHopsSig:mean 	14.75
scalar Network.dyn_peer[908] 	lookupTimeSig:mean 	2.3142857142857
scalar Network.dyn_peer[908] 	lookupStabilitySig:mean 	0.9213531203568
scalar Network.dyn_peer[908] 	lookupHopsSig:mean 	22.285714285714
scalar Network.dyn_peer[909] 	lookupTimeSig:mean 	2.44
scalar Network.dyn_peer[909] 	lookupStabilitySig:mean 	0.86639359369874
scalar Network.dyn_peer[909] 	lookupHopsSig:mean 	23.6
scalar Network.dyn_peer[910] 	lookupTimeSig:mean 	2.7714285714286
scalar Network.dyn_peer[910] 	lookupStabilitySig:mean 	0.95357776326793
scalar Network.dyn_peer[910] 	lookupHopsSig:mean 	26.857142857143
scalar Network.dyn_peer[911] 	lookupTimeSig:mean 	2
scalar Network.dyn_peer[911] 	lookupStabilitySig:mean 	0.89653718518093
scalar Network.dyn_peer[911] 	lookupHopsSig:mean 	19.125
scalar Network.dyn_peer[912] 	lookupTimeSig:mean 	2.1714285714286
scalar Network.dyn_peer[912] 	lookupStabilitySig:mean 	0.92784096593303
scalar Network.dyn_peer[912] 	lookupHopsSig:mean 	20.857142857143
scalar Network.dyn_peer[913] 	lookupTimeSig:mean 	2.2
scalar Network.dyn_peer[913] 	lookupStabilitySig:mean 	0.78248219937086
scalar Network.dyn_peer[913] 	lookupHopsSig:mean 	21.2
scalar Network.dyn_peer[914] 	lookupTimeSig:mean 	2.84
scalar Network.dyn_peer[914] 	lookupStabilitySig:mean 	0.93026703372598
scalar Network.dyn_peer[914] 	lookupHopsSig:mean 	27.6
scalar Network.dyn_peer[915] 	lookupTimeSig:mean 	0.94
scalar Network.dyn_peer[915] 	lookupStabilitySig:mean 	0.64916107580066
scalar Network.dyn_peer[915] 	lookupHopsSig:mean 	8.6
scalar Network.dyn_peer[916] 	lookupTimeSig:mean 	1.8
scalar Network.dyn_peer[916] 	lookupStabilitySig:mean 	0.78748134792679
scalar Network.dyn_peer[916] 	lookupHopsSig:mean 	17.111111111111
scalar Network.dyn_peer[917] 	lookupTimeSig:mean 	2.1142857142857
scalar Network.dyn_peer[917] 	lookupStabilitySig:mean 	0.94999775343708
scalar Network.dyn_peer[917] 	lookupHopsSig:mean 	20.285714285714
scalar Network.dyn_peer[918] 	lookupTimeSig:mean 	1.8
scalar Network.dyn_peer[918] 	lookupStabilitySig:mean 	0.74219471801605
scalar Network.dyn_peer[918] 	lookupHopsSig:mean 	17.142857142857
scalar Network.dyn_peer[919] 	lookupTimeSig:mean 	2.4
scalar Network.dyn_peer[919] 	lookupStabilitySig:mean 	0.86133888326585
scalar Network.dyn_peer[919] 	lookupHopsSig:mean 	23.2
scalar Network.dyn_peer[920] 	lookupTimeSig:mean 	2.1833333333333
scalar Network.dyn_peer[920] 	lookupStabilitySig:mean 	0.76502180937678
scalar Network.dyn_peer[920] 	lookupHopsSig:mean 	21
scalar Network.dyn_peer[921] 	lookupTimeSig:mean 	2.02
scalar Network.dyn_peer[921] 	lookupStabilitySig:mean 	0.7629103705287
scalar Network.dyn_peer[921] 	lookupHopsSig:mean 	19.4
scalar Network.dyn_peer[922] 	lookupTimeSig:mean 	1.4333333333333
scalar Network.dyn_peer[922] 	lookupStabilitySig:mean 	0.87082930581851
scalar Network.dyn_peer[922] 	lookupHopsSig:mean 	13.444444444444
scalar Network.dyn_peer[923] 	lookupTimeSig:mean 	1.94
scalar Network.dyn_peer[923] 	lookupStabilitySig:mean 	0.80118901524693
scalar Network.dyn_peer[923] 	lookupHopsSig:mean 	18.6
scalar Network.dyn_peer[924] 	lookupTimeSig:mean 	1.8875
scalar Network.dyn_peer[924] 	lookupStabilitySig:mean 	0.94091303285677
scalar Network.dyn_peer[924] 	lookupHopsSig:mean 	18
scalar Network.dyn_peer[925] 	lookupTimeSig:mean 	1.08
scalar Network.dyn_peer[925] 	lookupStabilitySig:mean 	0.64590720906854
scalar Network.dyn_peer[925] 	lookupHopsSig:mean 	10
scalar Network.dyn_peer[926] 	lookupTimeSig:mean 	2.8666666666667
scalar Network.dyn_peer[926] 	lookupStabilitySig:mean 	0.85443084252377
scalar Network.dyn_peer[926] 	lookupHopsSig:mean 	27.833333333333
scalar Network.dyn_peer[927] 	lookupTimeSig:mean 	1.4125
scalar Network.dyn_peer[927] 	lookupStabilitySig:mean 	0.72507864329964
scalar Network.dyn_peer[927] 	lookupHopsSig:mean 	13.25
scalar Network.dyn_peer[928] 	lookupTimeSig:mean 	3.25
scalar Network.dyn_peer[928] 	lookupStabilitySig:mean 	0.67001285776496
scalar Network.dyn_peer[928] 	lookupHopsSig:mean 	32
scalar Network.dyn_peer[929] 	lookupTimeSig:mean 	1.3333333333333
scalar Network.dyn_peer[929] 	lookupStabilitySig:mean 	0.46228069067001
scalar Network.dyn_peer[929] 	lookupHopsSig:mean 	12.666666666667
scalar Network.dyn_peer[930] 	lookupTimeSig:mean 	4.55
scalar Network.dyn_peer[930] 	lookupStabilitySig:mean 	0.85986579023302
scalar Network.dyn_peer[930] 	lookupHopsSig:mean 	45
scalar Network.dyn_peer[931] 	lookupTimeSig:mean 	1.447619047619
scalar Network.dyn_peer[931] 	lookupStabilitySig:mean 	0.91888977926491
scalar Network.dyn_peer[931] 	lookupHopsSig:mean 	13.52380952381
scalar Network.dyn_peer[932] 	lookupTimeSig:mean 	2.16
scalar Network.dyn_peer[932] 	lookupStabilitySig:mean 	0.94582639904693
scalar Network.dyn_peer[932] 	lookupHopsSig:mean 	20.7
scalar Network.dyn_peer[933] 	lookupTimeSig:mean 	1.5111111111111
scalar Network.dyn_peer[933] 	lookupStabilitySig:mean 	0.9045311782716
scalar Network.dyn_peer[933] 	lookupHopsSig:mean 	14.222222222222
scalar Network.dyn_peer[934] 	lookupTimeSig:mean 	2.18
scalar Network.dyn_peer[934] 	lookupStabilitySig:mean 	0.65537900514901
scalar Network.dyn_peer[934] 	lookupHopsSig:mean 	21
scalar Network.dyn_peer[935] 	lookupTimeSig:mean 	6.55
scalar Network.dyn_peer[935] 	lookupStabilitySig:mean 	0.62933537364006
scalar Network.dyn_peer[935] 	lookupHopsSig:mean 	65
scalar Network.dyn_peer[936] 	lookupTimeSig:mean 	2.625
scalar Network.dyn_peer[936] 	lookupStabilitySig:mean 	0.78359433589503
scalar Network.dyn_peer[936] 	lookupHopsSig:mean 	25.5
scalar Network.dyn_peer[937] 	lookupTimeSig:mean 	1.6
scalar Network.dyn_peer[937] 	lookupStabilitySig:mean 	0.92574218949303
scalar Network.dyn_peer[937] 	lookupHopsSig:mean 	15.1
scalar Network.dyn_peer[938] 	lookupTimeSig:mean 	1.8166666666667
scalar Network.dyn_peer[938] 	lookupStabilitySig:mean 	0.70801514542351
scalar Network.dyn_peer[938] 	lookupHopsSig:mean 	17.333333333333
scalar Network.dyn_peer[939] 	lookupTimeSig:mean 	3.75
scalar Network.dyn_peer[939] 	lookupStabilitySig:mean 	0.43464911729097
scalar Network.dyn_peer[939] 	lookupHopsSig:mean 	37
scalar Network.dyn_peer[940] 	lookupTimeSig:mean 	2.3
scalar Network.dyn_peer[940] 	lookupStabilitySig:mean 	0.9465262670336
scalar Network.dyn_peer[940] 	lookupHopsSig:mean 	22.142857142857
scalar Network.dyn_peer[941] 	lookupTimeSig:mean 	1.775
scalar Network.dyn_peer[941] 	lookupStabilitySig:mean 	0.79936467390507
scalar Network.dyn_peer[941] 	lookupHopsSig:mean 	17
scalar Network.dyn_peer[942] 	lookupTimeSig:mean 	1.95
scalar Network.dyn_peer[942] 	lookupStabilitySig:mean 	0.59004343301058
scalar Network.dyn_peer[942] 	lookupHopsSig:mean 	19
scalar Network.dyn_peer[943] 	lookupTimeSig:mean 	1.5375
scalar Network.dyn_peer[943] 	lookupStabilitySig:mean 	0.80880863615312
scalar Network.dyn_peer[943] 	lookupHopsSig:mean 	14.5
scalar Network.dyn_peer[944] 	lookupTimeSig:mean 	1.7
scalar Network.dyn_peer[944] 	lookupStabilitySig:mean 	0.89770417494906
scalar Network.dyn_peer[944] 	lookupHopsSig:mean 	16.111111111111
scalar Network.dyn_peer[945] 	lookupTimeSig:mean 	1.9
scalar Network.dyn_peer[945] 	lookupStabilitySig:mean 	0.82256042659283
scalar Network.dyn_peer[945] 	lookupHopsSig:mean 	18.2
scalar Network.dyn_peer[946] 	lookupTimeSig:mean 	2.0363636363636
scalar Network.dyn_peer[946] 	lookupStabilitySig:mean 	0.96572105882859
scalar Network.dyn_peer[946] 	lookupHopsSig:mean 	19.454545454545
scalar Network.dyn_peer[947] 	lookupTimeSig:mean 	1.6833333333333
scalar Network.dyn_peer[947] 	lookupStabilitySig:mean 	0.71006853195528
scalar Network.dyn_peer[947] 	lookupHopsSig:mean 	16
scalar Network.dyn_peer[948] 	lookupTimeSig:mean 	1.75
scalar Network.dyn_peer[948] 	lookupStabilitySig:mean 	0.54579741507769
scalar Network.dyn_peer[948] 	lookupHopsSig:mean 	17
scalar Network.dyn_peer[949] 	lookupTimeSig:mean 	2.88
scalar Network.dyn_peer[949] 	lookupStabilitySig:mean 	0.90253268331289
scalar Network.dyn_peer[949] 	lookupHopsSig:mean 	28
scalar Network.dyn_peer[950] 	lookupTimeSig:mean 	1.3333333333333
scalar Network.dyn_peer[950] 	lookupStabilitySig:mean 	0.61073404488464
scalar Network.dyn_peer[950] 	lookupHopsSig:mean 	12.666666666667
scalar Network.dyn_peer[951] 	lookupTimeSig:mean 	1.9285714285714
scalar Network.dyn_peer[951] 	lookupStabilitySig:mean 	0.90838203020394
scalar Network.dyn_peer[951] 	lookupHopsSig:mean 	18.428571428571
scalar Network.dyn_peer[952] 	lookupTimeSig:mean 	1.6923076923077
scalar Network.dyn_peer[952] 	lookupStabilitySig:mean 	0.95882882636327
scalar Network.dyn_peer[952] 	lookupHopsSig:mean 	16
scalar Network.dyn_peer[953] 	lookupTimeSig:mean 	2.5
scalar Network.dyn_peer[953] 	lookupStabilitySig:mean 	0.94284868978762
scalar Network.dyn_peer[953] 	lookupHopsSig:mean 	24.142857142857
scalar Network.dyn_peer[954] 	lookupTimeSig:mean 	1.725
scalar Network.dyn_peer[954] 	lookupStabilitySig:mean 	0.75956441275775
scalar Network.dyn_peer[954] 	lookupHopsSig:mean 	16.5
scalar Network.dyn_peer[955] 	lookupTimeSig:mean 	2.85
scalar Network.dyn_peer[955] 	lookupStabilitySig:mean 	0.73640856193379
scalar Network.dyn_peer[955] 	lookupHopsSig:mean 	27.75
scalar Network.dyn_peer[956] 	lookupTimeSig:mean 	1.6833333333333
scalar Network.dyn_peer[956] 	lookupStabilitySig:mean 	0.93143657268956
scalar Network.dyn_peer[956] 	lookupHopsSig:mean 	16
scalar Network.dyn_peer[957] 	lookupTimeSig:mean 	3.24
scalar Network.dyn_peer[957] 	lookupStabilitySig:mean 	0.87134030535817
scalar Network.dyn_peer[957] 	lookupHopsSig:mean 	31.6
scalar Network.dyn_peer[958] 	lookupTimeSig:mean 	1.92
scalar Network.dyn_peer[958] 	lookupStabilitySig:mean 	0.68198767453432
scalar Network.dyn_peer[958] 	lookupHopsSig:mean 	18.4
scalar Network.dyn_peer[959] 	lookupTimeSig:mean 	1.5545454545455
scalar Network.dyn_peer[959] 	lookupStabilitySig:mean 	0.93502756885507
scalar Network.dyn_peer[959] 	lookupHopsSig:mean 	14.636363636364
scalar Network.dyn_peer[960] 	lookupTimeSig:mean 	1.0444444444444
scalar Network.dyn_peer[960] 	lookupStabilitySig:mean 	0.79285407614791
scalar Network.dyn_peer[960] 	lookupHopsSig:mean 	9.5555555555556
scalar Network.dyn_peer[961] 	lookupTimeSig:mean 	1.7571428571429
scalar Network.dyn_peer[961] 	lookupStabilitySig:mean 	0.78339260157996
scalar Network.dyn_peer[961] 	lookupHopsSig:mean 	16.714285714286
scalar Network.dyn_peer[962] 	lookupTimeSig:mean 	2.45
scalar Network.dyn_peer[962] 	lookupStabilitySig:mean 	0.90608245072265
scalar Network.dyn_peer[962] 	lookupHopsSig:mean 	23.666666666667
scalar Network.dyn_peer[963] 	lookupTimeSig:mean 	1.9666666666667
scalar Network.dyn_peer[963] 	lookupStabilitySig:mean 	0.84984817891382
scalar Network.dyn_peer[963] 	lookupHopsSig:mean 	18.833333333333
scalar Network.dyn_peer[964] 	lookupTimeSig:mean 	2.1
scalar Network.dyn_peer[964] 	lookupStabilitySig:mean 	0.50192012389501
scalar Network.dyn_peer[964] 	lookupHopsSig:mean 	20.333333333333
scalar Network.dyn_peer[965] 	lookupTimeSig:mean 	1.5
scalar Network.dyn_peer[965] 	lookupStabilitySig:mean 	0.7857693079859
scalar Network.dyn_peer[965] 	lookupHopsSig:mean 	14.166666666667
scalar Network.dyn_peer[966] 	lookupTimeSig:mean 	1.6125
scalar Network.dyn_peer[966] 	lookupStabilitySig:mean 	0.83363354904577
scalar Network.dyn_peer[966] 	lookupHopsSig:mean 	15.25
scalar Network.dyn_peer[967] 	lookupTimeSig:mean 	3.2
scalar Network.dyn_peer[967] 	lookupStabilitySig:mean 	0.67531674355268
scalar Network.dyn_peer[967] 	lookupHopsSig:mean 	31.5
scalar Network.dyn_peer[968] 	lookupTimeSig:mean 	2.975
scalar Network.dyn_peer[968] 	lookupStabilitySig:mean 	0.8339058952406
scalar Network.dyn_peer[968] 	lookupHopsSig:mean 	29
scalar Network.dyn_peer[969] 	lookupTimeSig:mean 	3.6
scalar Network.dyn_peer[969] 	lookupStabilitySig:mean 	0.48211637884378
scalar Network.dyn_peer[969] 	lookupHopsSig:mean 	35.5
scalar Network.dyn_peer[970] 	lookupTimeSig:mean 	2.5166666666667
scalar Network.dyn_peer[970] 	lookupStabilitySig:mean 	0.94406457012519
scalar Network.dyn_peer[970] 	lookupHopsSig:mean 	24.333333333333
scalar Network.dyn_peer[971] 	lookupTimeSig:mean 	3.125
scalar Network.dyn_peer[971] 	lookupStabilitySig:mean 	0.8128339573741
scalar Network.dyn_peer[971] 	lookupHopsSig:mean 	30.5
scalar Network.dyn_peer[972] 	lookupTimeSig:mean 	1.75
scalar Network.dyn_peer[972] 	lookupStabilitySig:mean 	0.78412507660687
scalar Network.dyn_peer[972] 	lookupHopsSig:mean 	16.6
scalar Network.dyn_peer[973] 	lookupTimeSig:mean 	2.2285714285714
scalar Network.dyn_peer[973] 	lookupStabilitySig:mean 	0.9516080794856
scalar Network.dyn_peer[973] 	lookupHopsSig:mean 	21.428571428571
scalar Network.dyn_peer[974] 	lookupTimeSig:mean 	2.1888888888889
scalar Network.dyn_peer[974] 	lookupStabilitySig:mean 	0.93242502789427
scalar Network.dyn_peer[974] 	lookupHopsSig:mean 	21
scalar Network.dyn_peer[975] 	lookupTimeSig:mean 	2.98
scalar Network.dyn_peer[975] 	lookupStabilitySig:mean 	0.79012786597013
scalar Network.dyn_peer[975] 	lookupHopsSig:mean 	29
scalar Network.dyn_peer[976] 	lookupTimeSig:mean 	2.425
scalar Network.dyn_peer[976] 	lookupStabilitySig:mean 	0.86127223912627
scalar Network.dyn_peer[976] 	lookupHopsSig:mean 	23.5
scalar Network.dyn_peer[977] 	lookupTimeSig:mean 	1.7444444444444
scalar Network.dyn_peer[977] 	lookupStabilitySig:mean 	0.91913695074618
scalar Network.dyn_peer[977] 	lookupHopsSig:mean 	16.555555555556
scalar Network.dyn_peer[978] 	lookupTimeSig:mean 	1.4153846153846
scalar Network.dyn_peer[978] 	lookupStabilitySig:mean 	0.88778377578665
scalar Network.dyn_peer[978] 	lookupHopsSig:mean 	13.230769230769
scalar Network.dyn_peer[979] 	lookupTimeSig:mean 	2.65
scalar Network.dyn_peer[979] 	lookupStabilitySig:mean 	0.6524122916162
scalar Network.dyn_peer[979] 	lookupHopsSig:mean 	26
scalar Network.dyn_peer[980] 	lookupTimeSig:mean 	1.16
scalar Network.dyn_peer[980] 	lookupStabilitySig:mean 	0.69029846787453
scalar Network.dyn_peer[980] 	lookupHopsSig:mean 	10.8
scalar Network.dyn_peer[981] 	lookupTimeSig:mean 	5.05
scalar Network.dyn_peer[981] 	lookupStabilitySig:mean 	0.77932263538241
scalar Network.dyn_peer[981] 	lookupHopsSig:mean 	50
scalar Network.dyn_peer[982] 	lookupTimeSig:mean 	2.35
scalar Network.dyn_peer[982] 	lookupStabilitySig:mean 	0.91559802857228
scalar Network.dyn_peer[982] 	lookupHopsSig:mean 	22.75
scalar Network.dyn_peer[983] 	lookupTimeSig:mean 	2.0142857142857
scalar Network.dyn_peer[983] 	lookupStabilitySig:mean 	0.93644161961441
scalar Network.dyn_peer[983] 	lookupHopsSig:mean 	19.285714285714
scalar Network.dyn_peer[984] 	lookupTimeSig:mean 	3.54
scalar Network.dyn_peer[984] 	lookupStabilitySig:mean 	0.95158590050414
scalar Network.dyn_peer[984] 	lookupHopsSig:mean 	34.6
scalar Network.dyn_peer[985] 	lookupTimeSig:mean 	2.5
scalar Network.dyn_peer[985] 	lookupStabilitySig:mean 	0.68646609503776
scalar Network.dyn_peer[985] 	lookupHopsSig:mean 	24.25
scalar Network.dyn_peer[986] 	lookupTimeSig:mean 	1.7571428571429
scalar Network.dyn_peer[986] 	lookupStabilitySig:mean 	0.8694647706912
scalar Network.dyn_peer[986] 	lookupHopsSig:mean 	16.714285714286
scalar Network.dyn_peer[987] 	lookupTimeSig:mean 	1.625
scalar Network.dyn_peer[987] 	lookupStabilitySig:mean 	0.87064381485106
scalar Network.dyn_peer[987] 	lookupHopsSig:mean 	15.375
scalar Network.dyn_peer[988] 	lookupTimeSig:mean 	2.5571428571429
scalar Network.dyn_peer[988] 	lookupStabilitySig:mean 	0.95149300433695
scalar Network.dyn_peer[988] 	lookupHopsSig:mean 	24.714285714286
scalar Network.dyn_peer[989] 	lookupTimeSig:mean 	1.2272727272727
scalar Network.dyn_peer[989] 	lookupStabilitySig:mean 	0.90223100298846
scalar Network.dyn_peer[989] 	lookupHopsSig:mean 	11.363636363636
scalar Network.dyn_peer[990] 	lookupTimeSig:mean 	2.1888888888889
scalar Network.dyn_peer[990] 	lookupStabilitySig:mean 	0.95474698182402
scalar Network.dyn_peer[990] 	lookupHopsSig:mean 	21
scalar Network.dyn_peer[991] 	lookupTimeSig:mean 	1.5444444444444
scalar Network.dyn_peer[991] 	lookupStabilitySig:mean 	0.87515699418469
scalar Network.dyn_peer[991] 	lookupHopsSig:mean 	14.555555555556
scalar Network.dyn_peer[992] 	lookupTimeSig:mean 	1.9
scalar Network.dyn_peer[992] 	lookupStabilitySig:mean 	0.70976697156827
scalar Network.dyn_peer[992] 	lookupHopsSig:mean 	18.333333333333
scalar Network.dyn_peer[993] 	lookupTimeSig:mean 	2.86
scalar Network.dyn_peer[993] 	lookupStabilitySig:mean 	0.89171594958752
scalar Network.dyn_peer[993] 	lookupHopsSig:mean 	27.8
scalar Network.dyn_peer[994] 	lookupTimeSig:mean 	2.3
scalar Network.dyn_peer[994] 	lookupStabilitySig:mean 	0.48294573525588
scalar Network.dyn_peer[994] 	lookupHopsSig:mean 	22.333333333333
scalar Network.dyn_peer[995] 	lookupTimeSig:mean 	2.6125
scalar Network.dyn_peer[995] 	lookupStabilitySig:mean 	0.96094825817272
scalar Network.dyn_peer[995] 	lookupHopsSig:mean 	25.25
scalar Network.dyn_peer[996] 	lookupTimeSig:mean 	1.9
scalar Network.dyn_peer[996] 	lookupStabilitySig:mean 	0.66523886378855
scalar Network.dyn_peer[996] 	lookupHopsSig:mean 	18.25
scalar Network.dyn_peer[997] 	lookupTimeSig:mean 	4.2
scalar Network.dyn_peer[997] 	lookupStabilitySig:mean 	0.9440942434594
scalar Network.dyn_peer[997] 	lookupHopsSig:mean 	41.2
scalar Network.dyn_peer[998] 	lookupTimeSig:mean 	1.225
scalar Network.dyn_peer[998] 	lookupStabilitySig:mean 	0.59695091005415
scalar Network.dyn_peer[998] 	lookupHopsSig:mean 	11.5
scalar Network.dyn_peer[999] 	lookupTimeSig:mean 	1.6333333333333
scalar Network.dyn_peer[999] 	lookupStabilitySig:mean 	0.86760425629715
scalar Network.dyn_peer[999] 	lookupHopsSig:mean 	15.5
scalar Network.churner 	inGoingSizeSig:mean 	499.000999001
