version 2
run Stability2-259-20130526-00:53:20-26640
attr configname Stability2
attr datetime 20130526-00:53:20
attr experiment Stability2
attr inifile omnetpp.ini
attr iterationvars $0=400
attr iterationvars2 "$0=400, $repetition=19"
attr measurement $0=400
attr network Network
attr processid 26640
attr repetition 19
attr replication #19
attr resultdir results
attr runnumber 259
attr seedset 259

scalar Network.dyn_peer[0] 	lookupTimeSig:mean 	1.3
scalar Network.dyn_peer[0] 	lookupStabilitySig:mean 	0.64446311816573
scalar Network.dyn_peer[0] 	lookupHopsSig:mean 	12.166666666667
scalar Network.dyn_peer[1] 	lookupTimeSig:mean 	1.15
scalar Network.dyn_peer[1] 	lookupStabilitySig:mean 	-0.10000002384186
scalar Network.dyn_peer[1] 	lookupHopsSig:mean 	11
scalar Network.dyn_peer[2] 	lookupTimeSig:mean 	1.3
scalar Network.dyn_peer[2] 	lookupStabilitySig:mean 	0.84847860373557
scalar Network.dyn_peer[2] 	lookupHopsSig:mean 	12.2
scalar Network.dyn_peer[3] 	lookupTimeSig:mean 	0.46666666666667
scalar Network.dyn_peer[3] 	lookupStabilitySig:mean 	0.37499999503295
scalar Network.dyn_peer[3] 	lookupHopsSig:mean 	4
scalar Network.dyn_peer[4] 	lookupTimeSig:mean 	0.81666666666667
scalar Network.dyn_peer[4] 	lookupStabilitySig:mean 	0.66994860737274
scalar Network.dyn_peer[4] 	lookupHopsSig:mean 	7.3333333333333
scalar Network.dyn_peer[5] 	lookupTimeSig:mean 	0.65
scalar Network.dyn_peer[5] 	lookupStabilitySig:mean 	0.43860721215606
scalar Network.dyn_peer[5] 	lookupHopsSig:mean 	5.75
scalar Network.dyn_peer[6] 	lookupTimeSig:mean 	1.6
scalar Network.dyn_peer[6] 	lookupStabilitySig:mean 	0.3452830016613
scalar Network.dyn_peer[6] 	lookupHopsSig:mean 	15.5
scalar Network.dyn_peer[7] 	lookupTimeSig:mean 	0.6
scalar Network.dyn_peer[7] 	lookupStabilitySig:mean 	0.53698988333344
scalar Network.dyn_peer[7] 	lookupHopsSig:mean 	5.2
scalar Network.dyn_peer[8] 	lookupTimeSig:mean 	0.8
scalar Network.dyn_peer[8] 	lookupStabilitySig:mean 	0.53900671843439
scalar Network.dyn_peer[8] 	lookupHopsSig:mean 	7.25
scalar Network.dyn_peer[9] 	lookupTimeSig:mean 	1.4125
scalar Network.dyn_peer[9] 	lookupStabilitySig:mean 	0.88260126812384
scalar Network.dyn_peer[9] 	lookupHopsSig:mean 	13.25
scalar Network.dyn_peer[10] 	lookupTimeSig:mean 	0.97857142857143
scalar Network.dyn_peer[10] 	lookupStabilitySig:mean 	0.85273479517283
scalar Network.dyn_peer[10] 	lookupHopsSig:mean 	8.8571428571429
scalar Network.dyn_peer[11] 	lookupTimeSig:mean 	0.7
scalar Network.dyn_peer[11] 	lookupStabilitySig:mean 	0.33285025755564
scalar Network.dyn_peer[11] 	lookupHopsSig:mean 	6.3333333333333
scalar Network.dyn_peer[12] 	lookupTimeSig:mean 	1.1
scalar Network.dyn_peer[12] 	lookupStabilitySig:mean 	0.57056073844433
scalar Network.dyn_peer[12] 	lookupHopsSig:mean 	10.25
scalar Network.dyn_peer[13] 	lookupTimeSig:mean 	0.93333333333333
scalar Network.dyn_peer[13] 	lookupStabilitySig:mean 	0.47623602549235
scalar Network.dyn_peer[13] 	lookupHopsSig:mean 	8.6666666666667
scalar Network.dyn_peer[14] 	lookupTimeSig:mean 	1.1583333333333
scalar Network.dyn_peer[14] 	lookupStabilitySig:mean 	0.89740616478957
scalar Network.dyn_peer[14] 	lookupHopsSig:mean 	10.666666666667
scalar Network.dyn_peer[15] 	lookupTimeSig:mean 	1.24
scalar Network.dyn_peer[15] 	lookupStabilitySig:mean 	0.57696968913078
scalar Network.dyn_peer[15] 	lookupHopsSig:mean 	11.6
scalar Network.dyn_peer[16] 	lookupTimeSig:mean 	1.4666666666667
scalar Network.dyn_peer[16] 	lookupStabilitySig:mean 	0.84603867617746
scalar Network.dyn_peer[16] 	lookupHopsSig:mean 	13.833333333333
scalar Network.dyn_peer[17] 	lookupTimeSig:mean 	1.475
scalar Network.dyn_peer[17] 	lookupStabilitySig:mean 	0.58552630990744
scalar Network.dyn_peer[17] 	lookupHopsSig:mean 	14
scalar Network.dyn_peer[18] 	lookupTimeSig:mean 	1.4
scalar Network.dyn_peer[18] 	lookupStabilitySig:mean 	0.58152968157083
scalar Network.dyn_peer[18] 	lookupHopsSig:mean 	13.166666666667
scalar Network.dyn_peer[19] 	lookupTimeSig:mean 	2.0666666666667
scalar Network.dyn_peer[19] 	lookupStabilitySig:mean 	0.24020308752855
scalar Network.dyn_peer[19] 	lookupHopsSig:mean 	20
scalar Network.dyn_peer[20] 	lookupTimeSig:mean 	1.35
scalar Network.dyn_peer[20] 	lookupStabilitySig:mean 	0.75312114786357
scalar Network.dyn_peer[20] 	lookupHopsSig:mean 	12.625
scalar Network.dyn_peer[21] 	lookupTimeSig:mean 	0.55
scalar Network.dyn_peer[21] 	lookupStabilitySig:mean 	0.46006493642926
scalar Network.dyn_peer[21] 	lookupHopsSig:mean 	4.75
scalar Network.dyn_peer[22] 	lookupTimeSig:mean 	1.3333333333333
scalar Network.dyn_peer[22] 	lookupStabilitySig:mean 	0.70990220519404
scalar Network.dyn_peer[22] 	lookupHopsSig:mean 	12.5
scalar Network.dyn_peer[23] 	lookupTimeSig:mean 	1.1833333333333
scalar Network.dyn_peer[23] 	lookupStabilitySig:mean 	0.67150444475313
scalar Network.dyn_peer[23] 	lookupHopsSig:mean 	11
scalar Network.dyn_peer[24] 	lookupTimeSig:mean 	1.14
scalar Network.dyn_peer[24] 	lookupStabilitySig:mean 	0.80759443932523
scalar Network.dyn_peer[24] 	lookupHopsSig:mean 	10.466666666667
scalar Network.dyn_peer[25] 	lookupTimeSig:mean 	1.3666666666667
scalar Network.dyn_peer[25] 	lookupStabilitySig:mean 	0.66146571437518
scalar Network.dyn_peer[25] 	lookupHopsSig:mean 	13
scalar Network.dyn_peer[26] 	lookupTimeSig:mean 	0.92222222222222
scalar Network.dyn_peer[26] 	lookupStabilitySig:mean 	0.87917417080866
scalar Network.dyn_peer[26] 	lookupHopsSig:mean 	8.3333333333333
scalar Network.dyn_peer[27] 	lookupTimeSig:mean 	1.6666666666667
scalar Network.dyn_peer[27] 	lookupStabilitySig:mean 	0.57380952934424
scalar Network.dyn_peer[27] 	lookupHopsSig:mean 	16
scalar Network.dyn_peer[28] 	lookupTimeSig:mean 	1.3142857142857
scalar Network.dyn_peer[28] 	lookupStabilitySig:mean 	0.80657813032823
scalar Network.dyn_peer[28] 	lookupHopsSig:mean 	12.285714285714
scalar Network.dyn_peer[29] 	lookupTimeSig:mean 	1.4
scalar Network.dyn_peer[29] 	lookupStabilitySig:mean 	0.60702587626874
scalar Network.dyn_peer[29] 	lookupHopsSig:mean 	13.2
scalar Network.dyn_peer[30] 	lookupTimeSig:mean 	0.7
scalar Network.dyn_peer[30] 	lookupStabilitySig:mean 	0.67137461807579
scalar Network.dyn_peer[30] 	lookupHopsSig:mean 	6.125
scalar Network.dyn_peer[31] 	lookupTimeSig:mean 	1.65
scalar Network.dyn_peer[31] 	lookupStabilitySig:mean 	0.79264536686242
scalar Network.dyn_peer[31] 	lookupHopsSig:mean 	15.75
scalar Network.dyn_peer[32] 	lookupTimeSig:mean 	0.81666666666667
scalar Network.dyn_peer[32] 	lookupStabilitySig:mean 	0.59136026538908
scalar Network.dyn_peer[32] 	lookupHopsSig:mean 	7.3333333333333
scalar Network.dyn_peer[33] 	lookupTimeSig:mean 	1.475
scalar Network.dyn_peer[33] 	lookupStabilitySig:mean 	0.6179469153285
scalar Network.dyn_peer[33] 	lookupHopsSig:mean 	14
scalar Network.dyn_peer[34] 	lookupTimeSig:mean 	1.3
scalar Network.dyn_peer[34] 	lookupStabilitySig:mean 	0.56666665524244
scalar Network.dyn_peer[34] 	lookupHopsSig:mean 	12.5
scalar Network.dyn_peer[35] 	lookupTimeSig:mean 	1.52
scalar Network.dyn_peer[35] 	lookupStabilitySig:mean 	0.72484939880669
scalar Network.dyn_peer[35] 	lookupHopsSig:mean 	14.4
scalar Network.dyn_peer[36] 	lookupTimeSig:mean 	1.3428571428571
scalar Network.dyn_peer[36] 	lookupStabilitySig:mean 	0.72546017542481
scalar Network.dyn_peer[36] 	lookupHopsSig:mean 	12.571428571429
scalar Network.dyn_peer[37] 	lookupTimeSig:mean 	1
scalar Network.dyn_peer[37] 	lookupStabilitySig:mean 	0.67473489511758
scalar Network.dyn_peer[37] 	lookupHopsSig:mean 	9.125
scalar Network.dyn_peer[38] 	lookupTimeSig:mean 	0.55
scalar Network.dyn_peer[38] 	lookupStabilitySig:mean 	0.50747127272189
scalar Network.dyn_peer[38] 	lookupHopsSig:mean 	4.75
scalar Network.dyn_peer[39] 	lookupTimeSig:mean 	1.2666666666667
scalar Network.dyn_peer[39] 	lookupStabilitySig:mean 	0.65421617031097
scalar Network.dyn_peer[39] 	lookupHopsSig:mean 	11.833333333333
scalar Network.dyn_peer[40] 	lookupTimeSig:mean 	1.3333333333333
scalar Network.dyn_peer[40] 	lookupStabilitySig:mean 	0.64074072986841
scalar Network.dyn_peer[40] 	lookupHopsSig:mean 	12.666666666667
scalar Network.dyn_peer[41] 	lookupTimeSig:mean 	1.3285714285714
scalar Network.dyn_peer[41] 	lookupStabilitySig:mean 	0.80358973730888
scalar Network.dyn_peer[41] 	lookupHopsSig:mean 	12.428571428571
scalar Network.dyn_peer[42] 	lookupTimeSig:mean 	1.4166666666667
scalar Network.dyn_peer[42] 	lookupStabilitySig:mean 	0.81170997302979
scalar Network.dyn_peer[42] 	lookupHopsSig:mean 	13.333333333333
scalar Network.dyn_peer[43] 	lookupTimeSig:mean 	1.1875
scalar Network.dyn_peer[43] 	lookupStabilitySig:mean 	0.82612411177251
scalar Network.dyn_peer[43] 	lookupHopsSig:mean 	11
scalar Network.dyn_peer[44] 	lookupTimeSig:mean 	1.3666666666667
scalar Network.dyn_peer[44] 	lookupStabilitySig:mean 	0.6482480696092
scalar Network.dyn_peer[44] 	lookupHopsSig:mean 	12.833333333333
scalar Network.dyn_peer[45] 	lookupTimeSig:mean 	1
scalar Network.dyn_peer[45] 	lookupStabilitySig:mean 	0.72924927063286
scalar Network.dyn_peer[45] 	lookupHopsSig:mean 	9.1666666666667
scalar Network.dyn_peer[46] 	lookupTimeSig:mean 	0.9
scalar Network.dyn_peer[46] 	lookupStabilitySig:mean 	0.67804080247879
scalar Network.dyn_peer[46] 	lookupHopsSig:mean 	8.1428571428571
scalar Network.dyn_peer[47] 	lookupTimeSig:mean 	1.04
scalar Network.dyn_peer[47] 	lookupStabilitySig:mean 	0.65317682474852
scalar Network.dyn_peer[47] 	lookupHopsSig:mean 	9.6
scalar Network.dyn_peer[48] 	lookupTimeSig:mean 	0.66
scalar Network.dyn_peer[48] 	lookupStabilitySig:mean 	0.53086207062006
scalar Network.dyn_peer[48] 	lookupHopsSig:mean 	5.8
scalar Network.dyn_peer[49] 	lookupTimeSig:mean 	1.0125
scalar Network.dyn_peer[49] 	lookupStabilitySig:mean 	0.78123700234573
scalar Network.dyn_peer[49] 	lookupHopsSig:mean 	9.25
scalar Network.dyn_peer[50] 	lookupTimeSig:mean 	1.16
scalar Network.dyn_peer[50] 	lookupStabilitySig:mean 	0.59661701023579
scalar Network.dyn_peer[50] 	lookupHopsSig:mean 	10.8
scalar Network.dyn_peer[51] 	lookupTimeSig:mean 	1.26
scalar Network.dyn_peer[51] 	lookupStabilitySig:mean 	0.60262437239289
scalar Network.dyn_peer[51] 	lookupHopsSig:mean 	11.8
scalar Network.dyn_peer[52] 	lookupTimeSig:mean 	1.5333333333333
scalar Network.dyn_peer[52] 	lookupStabilitySig:mean 	0.6395955303063
scalar Network.dyn_peer[52] 	lookupHopsSig:mean 	14.5
scalar Network.dyn_peer[53] 	lookupTimeSig:mean 	0.7
scalar Network.dyn_peer[53] 	lookupStabilitySig:mean 	0.61738208383322
scalar Network.dyn_peer[53] 	lookupHopsSig:mean 	6.2
scalar Network.dyn_peer[54] 	lookupTimeSig:mean 	0.93333333333333
scalar Network.dyn_peer[54] 	lookupStabilitySig:mean 	0.74290676694363
scalar Network.dyn_peer[54] 	lookupHopsSig:mean 	8.4444444444444
scalar Network.dyn_peer[55] 	lookupTimeSig:mean 	0.96666666666667
scalar Network.dyn_peer[55] 	lookupStabilitySig:mean 	0.60606367699802
scalar Network.dyn_peer[55] 	lookupHopsSig:mean 	9
scalar Network.dyn_peer[56] 	lookupTimeSig:mean 	0.72222222222222
scalar Network.dyn_peer[56] 	lookupStabilitySig:mean 	0.74503636184252
scalar Network.dyn_peer[56] 	lookupHopsSig:mean 	6.3333333333333
scalar Network.dyn_peer[57] 	lookupTimeSig:mean 	1.2
scalar Network.dyn_peer[57] 	lookupStabilitySig:mean 	0.53960937820375
scalar Network.dyn_peer[57] 	lookupHopsSig:mean 	11.25
scalar Network.dyn_peer[58] 	lookupTimeSig:mean 	1.1666666666667
scalar Network.dyn_peer[58] 	lookupStabilitySig:mean 	0.54440052310626
scalar Network.dyn_peer[58] 	lookupHopsSig:mean 	11
scalar Network.dyn_peer[59] 	lookupTimeSig:mean 	1.15
scalar Network.dyn_peer[59] 	lookupStabilitySig:mean 	0.72761520219501
scalar Network.dyn_peer[59] 	lookupHopsSig:mean 	10.625
scalar Network.dyn_peer[60] 	lookupTimeSig:mean 	1.3666666666667
scalar Network.dyn_peer[60] 	lookupStabilitySig:mean 	0.20277776817481
scalar Network.dyn_peer[60] 	lookupHopsSig:mean 	13
scalar Network.dyn_peer[61] 	lookupTimeSig:mean 	1.05
scalar Network.dyn_peer[61] 	lookupStabilitySig:mean 	0.38518518209457
scalar Network.dyn_peer[61] 	lookupHopsSig:mean 	10
scalar Network.dyn_peer[62] 	lookupTimeSig:mean 	1.3
scalar Network.dyn_peer[62] 	lookupStabilitySig:mean 	0.59155236743391
scalar Network.dyn_peer[62] 	lookupHopsSig:mean 	12.25
scalar Network.dyn_peer[63] 	lookupTimeSig:mean 	1.35
scalar Network.dyn_peer[63] 	lookupStabilitySig:mean 	0.67483659088612
scalar Network.dyn_peer[63] 	lookupHopsSig:mean 	12.75
scalar Network.dyn_peer[64] 	lookupTimeSig:mean 	0.55
scalar Network.dyn_peer[64] 	lookupStabilitySig:mean 	0.61822666165729
scalar Network.dyn_peer[64] 	lookupHopsSig:mean 	4.6666666666667
scalar Network.dyn_peer[65] 	lookupTimeSig:mean 	1.7333333333333
scalar Network.dyn_peer[65] 	lookupStabilitySig:mean 	0.82019656027357
scalar Network.dyn_peer[65] 	lookupHopsSig:mean 	16.5
scalar Network.dyn_peer[66] 	lookupTimeSig:mean 	0.86
scalar Network.dyn_peer[66] 	lookupStabilitySig:mean 	0.77300944402814
scalar Network.dyn_peer[66] 	lookupHopsSig:mean 	7.8
scalar Network.dyn_peer[67] 	lookupTimeSig:mean 	1.25
scalar Network.dyn_peer[67] 	lookupStabilitySig:mean 	0.73013713210821
scalar Network.dyn_peer[67] 	lookupHopsSig:mean 	11.75
scalar Network.dyn_peer[68] 	lookupTimeSig:mean 	1.66
scalar Network.dyn_peer[68] 	lookupStabilitySig:mean 	0.78051465451717
scalar Network.dyn_peer[68] 	lookupHopsSig:mean 	15.8
scalar Network.dyn_peer[69] 	lookupTimeSig:mean 	1.2
scalar Network.dyn_peer[69] 	lookupStabilitySig:mean 	0.45278377085924
scalar Network.dyn_peer[69] 	lookupHopsSig:mean 	11.25
scalar Network.dyn_peer[70] 	lookupTimeSig:mean 	0.72727272727273
scalar Network.dyn_peer[70] 	lookupStabilitySig:mean 	0.8648170935498
scalar Network.dyn_peer[70] 	lookupHopsSig:mean 	6.3636363636364
scalar Network.dyn_peer[71] 	lookupTimeSig:mean 	1.3
scalar Network.dyn_peer[71] 	lookupStabilitySig:mean 	0.41506660977999
scalar Network.dyn_peer[71] 	lookupHopsSig:mean 	12.333333333333
scalar Network.dyn_peer[72] 	lookupTimeSig:mean 	1.0666666666667
scalar Network.dyn_peer[72] 	lookupStabilitySig:mean 	0.85927187196083
scalar Network.dyn_peer[72] 	lookupHopsSig:mean 	9.7777777777778
scalar Network.dyn_peer[73] 	lookupTimeSig:mean 	1.6666666666667
scalar Network.dyn_peer[73] 	lookupStabilitySig:mean 	0.59227052330971
scalar Network.dyn_peer[73] 	lookupHopsSig:mean 	16
scalar Network.dyn_peer[74] 	lookupTimeSig:mean 	1.0714285714286
scalar Network.dyn_peer[74] 	lookupStabilitySig:mean 	0.67635777193521
scalar Network.dyn_peer[74] 	lookupHopsSig:mean 	9.8571428571429
scalar Network.dyn_peer[75] 	lookupTimeSig:mean 	0.75
scalar Network.dyn_peer[75] 	lookupStabilitySig:mean 	0.73606688855216
scalar Network.dyn_peer[75] 	lookupHopsSig:mean 	6.625
scalar Network.dyn_peer[76] 	lookupTimeSig:mean 	1.8333333333333
scalar Network.dyn_peer[76] 	lookupStabilitySig:mean 	0.27413318057855
scalar Network.dyn_peer[76] 	lookupHopsSig:mean 	17.666666666667
scalar Network.dyn_peer[77] 	lookupTimeSig:mean 	0.54
scalar Network.dyn_peer[77] 	lookupStabilitySig:mean 	0.52661804333329
scalar Network.dyn_peer[77] 	lookupHopsSig:mean 	4.6
scalar Network.dyn_peer[78] 	lookupTimeSig:mean 	1.5333333333333
scalar Network.dyn_peer[78] 	lookupStabilitySig:mean 	0.66916737080707
scalar Network.dyn_peer[78] 	lookupHopsSig:mean 	14.5
scalar Network.dyn_peer[79] 	lookupTimeSig:mean 	0.76
scalar Network.dyn_peer[79] 	lookupStabilitySig:mean 	0.56547619104385
scalar Network.dyn_peer[79] 	lookupHopsSig:mean 	6.8
scalar Network.dyn_peer[80] 	lookupTimeSig:mean 	0.94
scalar Network.dyn_peer[80] 	lookupStabilitySig:mean 	0.71335911080241
scalar Network.dyn_peer[80] 	lookupHopsSig:mean 	8.6
scalar Network.dyn_peer[81] 	lookupTimeSig:mean 	1.35
scalar Network.dyn_peer[81] 	lookupStabilitySig:mean 	0.43818323686719
scalar Network.dyn_peer[81] 	lookupHopsSig:mean 	12.75
scalar Network.dyn_peer[82] 	lookupTimeSig:mean 	1.4
scalar Network.dyn_peer[82] 	lookupStabilitySig:mean 	0.46715692989528
scalar Network.dyn_peer[82] 	lookupHopsSig:mean 	13.25
scalar Network.dyn_peer[83] 	lookupTimeSig:mean 	0.93333333333333
scalar Network.dyn_peer[83] 	lookupStabilitySig:mean 	0.33559782554706
scalar Network.dyn_peer[83] 	lookupHopsSig:mean 	8.6666666666667
scalar Network.dyn_peer[84] 	lookupTimeSig:mean 	1.05
scalar Network.dyn_peer[84] 	lookupStabilitySig:mean 	0.56032754294574
scalar Network.dyn_peer[84] 	lookupHopsSig:mean 	9.75
scalar Network.dyn_peer[85] 	lookupTimeSig:mean 	1.3666666666667
scalar Network.dyn_peer[85] 	lookupStabilitySig:mean 	0.65031072745721
scalar Network.dyn_peer[85] 	lookupHopsSig:mean 	12.833333333333
scalar Network.dyn_peer[86] 	lookupTimeSig:mean 	1.1375
scalar Network.dyn_peer[86] 	lookupStabilitySig:mean 	0.75877716660034
scalar Network.dyn_peer[86] 	lookupHopsSig:mean 	10.5
scalar Network.dyn_peer[87] 	lookupTimeSig:mean 	0.925
scalar Network.dyn_peer[87] 	lookupStabilitySig:mean 	0.87218790489715
scalar Network.dyn_peer[87] 	lookupHopsSig:mean 	8.375
scalar Network.dyn_peer[88] 	lookupTimeSig:mean 	0.4
scalar Network.dyn_peer[88] 	lookupStabilitySig:mean 	0.4269841214021
scalar Network.dyn_peer[88] 	lookupHopsSig:mean 	3.3333333333333
scalar Network.dyn_peer[89] 	lookupTimeSig:mean 	0.78
scalar Network.dyn_peer[89] 	lookupStabilitySig:mean 	0.59675009995699
scalar Network.dyn_peer[89] 	lookupHopsSig:mean 	7
scalar Network.dyn_peer[90] 	lookupTimeSig:mean 	1.125
scalar Network.dyn_peer[90] 	lookupStabilitySig:mean 	0.55886784940958
scalar Network.dyn_peer[90] 	lookupHopsSig:mean 	10.5
scalar Network.dyn_peer[91] 	lookupTimeSig:mean 	1.275
scalar Network.dyn_peer[91] 	lookupStabilitySig:mean 	0.47118054330349
scalar Network.dyn_peer[91] 	lookupHopsSig:mean 	12
scalar Network.dyn_peer[92] 	lookupTimeSig:mean 	1.325
scalar Network.dyn_peer[92] 	lookupStabilitySig:mean 	0.44228532351553
scalar Network.dyn_peer[92] 	lookupHopsSig:mean 	12.5
scalar Network.dyn_peer[93] 	lookupTimeSig:mean 	0.475
scalar Network.dyn_peer[93] 	lookupStabilitySig:mean 	0.56369047425687
scalar Network.dyn_peer[93] 	lookupHopsSig:mean 	4
scalar Network.dyn_peer[94] 	lookupTimeSig:mean 	1.7
scalar Network.dyn_peer[94] 	lookupStabilitySig:mean 	0.65757574886084
scalar Network.dyn_peer[94] 	lookupHopsSig:mean 	16.5
scalar Network.dyn_peer[95] 	lookupTimeSig:mean 	1.4125
scalar Network.dyn_peer[95] 	lookupStabilitySig:mean 	0.76788172917441
scalar Network.dyn_peer[95] 	lookupHopsSig:mean 	13.25
scalar Network.dyn_peer[96] 	lookupTimeSig:mean 	2.45
scalar Network.dyn_peer[96] 	lookupStabilitySig:mean 	0.33955223858356
scalar Network.dyn_peer[96] 	lookupHopsSig:mean 	24
scalar Network.dyn_peer[97] 	lookupTimeSig:mean 	1.48
scalar Network.dyn_peer[97] 	lookupStabilitySig:mean 	0.78227494880557
scalar Network.dyn_peer[97] 	lookupHopsSig:mean 	14
scalar Network.dyn_peer[98] 	lookupTimeSig:mean 	0.6
scalar Network.dyn_peer[98] 	lookupStabilitySig:mean 	0.6243296576043
scalar Network.dyn_peer[98] 	lookupHopsSig:mean 	5.1666666666667
scalar Network.dyn_peer[99] 	lookupTimeSig:mean 	2.4333333333333
scalar Network.dyn_peer[99] 	lookupStabilitySig:mean 	0.47751003503799
scalar Network.dyn_peer[99] 	lookupHopsSig:mean 	23.666666666667
scalar Network.dyn_peer[100] 	lookupTimeSig:mean 	1.1
scalar Network.dyn_peer[100] 	lookupStabilitySig:mean 	0.83440127652138
scalar Network.dyn_peer[100] 	lookupHopsSig:mean 	10.1
scalar Network.dyn_peer[101] 	lookupTimeSig:mean 	0.9
scalar Network.dyn_peer[101] 	lookupStabilitySig:mean 	0.84152827743027
scalar Network.dyn_peer[101] 	lookupHopsSig:mean 	8.1111111111111
scalar Network.dyn_peer[102] 	lookupTimeSig:mean 	1.32
scalar Network.dyn_peer[102] 	lookupStabilitySig:mean 	0.62958391867578
scalar Network.dyn_peer[102] 	lookupHopsSig:mean 	12.4
scalar Network.dyn_peer[103] 	lookupTimeSig:mean 	1.94
scalar Network.dyn_peer[103] 	lookupStabilitySig:mean 	0.72671635299921
scalar Network.dyn_peer[103] 	lookupHopsSig:mean 	18.6
scalar Network.dyn_peer[104] 	lookupTimeSig:mean 	1.6
scalar Network.dyn_peer[104] 	lookupStabilitySig:mean 	0.75659478642046
scalar Network.dyn_peer[104] 	lookupHopsSig:mean 	15.25
scalar Network.dyn_peer[105] 	lookupTimeSig:mean 	1.02
scalar Network.dyn_peer[105] 	lookupStabilitySig:mean 	0.5842145524919
scalar Network.dyn_peer[105] 	lookupHopsSig:mean 	9.4
scalar Network.dyn_peer[106] 	lookupTimeSig:mean 	1.2
scalar Network.dyn_peer[106] 	lookupStabilitySig:mean 	0.78822806570679
scalar Network.dyn_peer[106] 	lookupHopsSig:mean 	11.1
scalar Network.dyn_peer[107] 	lookupTimeSig:mean 	1.325
scalar Network.dyn_peer[107] 	lookupStabilitySig:mean 	0.66490433178842
scalar Network.dyn_peer[107] 	lookupHopsSig:mean 	12.5
scalar Network.dyn_peer[108] 	lookupTimeSig:mean 	0.78571428571429
scalar Network.dyn_peer[108] 	lookupStabilitySig:mean 	0.73371052821832
scalar Network.dyn_peer[108] 	lookupHopsSig:mean 	7
scalar Network.dyn_peer[109] 	lookupTimeSig:mean 	0.73333333333333
scalar Network.dyn_peer[109] 	lookupStabilitySig:mean 	0.6203735123078
scalar Network.dyn_peer[109] 	lookupHopsSig:mean 	6.6666666666667
scalar Network.dyn_peer[110] 	lookupTimeSig:mean 	1.8
scalar Network.dyn_peer[110] 	lookupStabilitySig:mean 	0.31491228193045
scalar Network.dyn_peer[110] 	lookupHopsSig:mean 	17.5
scalar Network.dyn_peer[111] 	lookupTimeSig:mean 	1.1
scalar Network.dyn_peer[111] 	lookupStabilitySig:mean 	0.51845237240195
scalar Network.dyn_peer[111] 	lookupHopsSig:mean 	10.25
scalar Network.dyn_peer[112] 	lookupTimeSig:mean 	1.175
scalar Network.dyn_peer[112] 	lookupStabilitySig:mean 	0.50078369118273
scalar Network.dyn_peer[112] 	lookupHopsSig:mean 	11
scalar Network.dyn_peer[113] 	lookupTimeSig:mean 	1.4444444444444
scalar Network.dyn_peer[113] 	lookupStabilitySig:mean 	0.80715372268524
scalar Network.dyn_peer[113] 	lookupHopsSig:mean 	13.555555555556
scalar Network.dyn_peer[114] 	lookupTimeSig:mean 	1.2714285714286
scalar Network.dyn_peer[114] 	lookupStabilitySig:mean 	0.85559046587774
scalar Network.dyn_peer[114] 	lookupHopsSig:mean 	11.857142857143
scalar Network.dyn_peer[115] 	lookupTimeSig:mean 	1.0666666666667
scalar Network.dyn_peer[115] 	lookupStabilitySig:mean 	0.28846357266108
scalar Network.dyn_peer[115] 	lookupHopsSig:mean 	10
scalar Network.dyn_peer[116] 	lookupTimeSig:mean 	1.1666666666667
scalar Network.dyn_peer[116] 	lookupStabilitySig:mean 	0.59099789739897
scalar Network.dyn_peer[116] 	lookupHopsSig:mean 	10.833333333333
scalar Network.dyn_peer[117] 	lookupTimeSig:mean 	0.85
scalar Network.dyn_peer[117] 	lookupStabilitySig:mean 	0.63928964361548
scalar Network.dyn_peer[117] 	lookupHopsSig:mean 	7.75
scalar Network.dyn_peer[118] 	lookupTimeSig:mean 	0.43333333333333
scalar Network.dyn_peer[118] 	lookupStabilitySig:mean 	0.41481480002403
scalar Network.dyn_peer[118] 	lookupHopsSig:mean 	3.6666666666667
scalar Network.dyn_peer[119] 	lookupTimeSig:mean 	0.61666666666667
scalar Network.dyn_peer[119] 	lookupStabilitySig:mean 	0.6750436834991
scalar Network.dyn_peer[119] 	lookupHopsSig:mean 	5.3333333333333
scalar Network.dyn_peer[120] 	lookupTimeSig:mean 	1.4375
scalar Network.dyn_peer[120] 	lookupStabilitySig:mean 	0.88381429563742
scalar Network.dyn_peer[120] 	lookupHopsSig:mean 	13.5
scalar Network.dyn_peer[121] 	lookupTimeSig:mean 	1.42
scalar Network.dyn_peer[121] 	lookupStabilitySig:mean 	0.63155916333199
scalar Network.dyn_peer[121] 	lookupHopsSig:mean 	13.4
scalar Network.dyn_peer[122] 	lookupTimeSig:mean 	0.81111111111111
scalar Network.dyn_peer[122] 	lookupStabilitySig:mean 	0.82731006832586
scalar Network.dyn_peer[122] 	lookupHopsSig:mean 	7.2222222222222
scalar Network.dyn_peer[123] 	lookupTimeSig:mean 	1.375
scalar Network.dyn_peer[123] 	lookupStabilitySig:mean 	0.48595138080418
scalar Network.dyn_peer[123] 	lookupHopsSig:mean 	13
scalar Network.dyn_peer[124] 	lookupTimeSig:mean 	2.2
scalar Network.dyn_peer[124] 	lookupStabilitySig:mean 	0.78403944708407
scalar Network.dyn_peer[124] 	lookupHopsSig:mean 	21.25
scalar Network.dyn_peer[125] 	lookupTimeSig:mean 	1.375
scalar Network.dyn_peer[125] 	lookupStabilitySig:mean 	0.43181866779923
scalar Network.dyn_peer[125] 	lookupHopsSig:mean 	13
scalar Network.dyn_peer[126] 	lookupTimeSig:mean 	1.42
scalar Network.dyn_peer[126] 	lookupStabilitySig:mean 	0.79169166758657
scalar Network.dyn_peer[126] 	lookupHopsSig:mean 	13.4
scalar Network.dyn_peer[127] 	lookupTimeSig:mean 	1.025
scalar Network.dyn_peer[127] 	lookupStabilitySig:mean 	0.86259285244159
scalar Network.dyn_peer[127] 	lookupHopsSig:mean 	9.375
scalar Network.dyn_peer[128] 	lookupTimeSig:mean 	1.6
scalar Network.dyn_peer[128] 	lookupStabilitySig:mean 	0.80062087641896
scalar Network.dyn_peer[128] 	lookupHopsSig:mean 	15.142857142857
scalar Network.dyn_peer[129] 	lookupTimeSig:mean 	1.0307692307692
scalar Network.dyn_peer[129] 	lookupStabilitySig:mean 	0.86192122631921
scalar Network.dyn_peer[129] 	lookupHopsSig:mean 	9.3846153846154
scalar Network.dyn_peer[130] 	lookupTimeSig:mean 	2.1
scalar Network.dyn_peer[130] 	lookupStabilitySig:mean 	0.36795169115067
scalar Network.dyn_peer[130] 	lookupHopsSig:mean 	20.333333333333
scalar Network.dyn_peer[131] 	lookupTimeSig:mean 	0.78333333333333
scalar Network.dyn_peer[131] 	lookupStabilitySig:mean 	0.65220617378751
scalar Network.dyn_peer[131] 	lookupHopsSig:mean 	7
scalar Network.dyn_peer[132] 	lookupTimeSig:mean 	0.94444444444444
scalar Network.dyn_peer[132] 	lookupStabilitySig:mean 	0.77295648058256
scalar Network.dyn_peer[132] 	lookupHopsSig:mean 	8.5555555555556
scalar Network.dyn_peer[133] 	lookupTimeSig:mean 	1.6666666666667
scalar Network.dyn_peer[133] 	lookupStabilitySig:mean 	0.80242031533271
scalar Network.dyn_peer[133] 	lookupHopsSig:mean 	15.833333333333
scalar Network.dyn_peer[134] 	lookupTimeSig:mean 	1.1666666666667
scalar Network.dyn_peer[134] 	lookupStabilitySig:mean 	0.22156083583832
scalar Network.dyn_peer[134] 	lookupHopsSig:mean 	11
scalar Network.dyn_peer[135] 	lookupTimeSig:mean 	1.15
scalar Network.dyn_peer[135] 	lookupStabilitySig:mean 	0.52383402176201
scalar Network.dyn_peer[135] 	lookupHopsSig:mean 	10.75
scalar Network.dyn_peer[136] 	lookupTimeSig:mean 	0.7
scalar Network.dyn_peer[136] 	lookupStabilitySig:mean 	0.69130088575184
scalar Network.dyn_peer[136] 	lookupHopsSig:mean 	6.1428571428571
scalar Network.dyn_peer[137] 	lookupTimeSig:mean 	1.85
scalar Network.dyn_peer[137] 	lookupStabilitySig:mean 	0.78674847632647
scalar Network.dyn_peer[137] 	lookupHopsSig:mean 	17.75
scalar Network.dyn_peer[138] 	lookupTimeSig:mean 	1.575
scalar Network.dyn_peer[138] 	lookupStabilitySig:mean 	0.75064169382676
scalar Network.dyn_peer[138] 	lookupHopsSig:mean 	15
scalar Network.dyn_peer[139] 	lookupTimeSig:mean 	0.375
scalar Network.dyn_peer[139] 	lookupStabilitySig:mean 	0.54523808509111
scalar Network.dyn_peer[139] 	lookupHopsSig:mean 	3
scalar Network.dyn_peer[140] 	lookupTimeSig:mean 	0.95454545454545
scalar Network.dyn_peer[140] 	lookupStabilitySig:mean 	0.7794205092571
scalar Network.dyn_peer[140] 	lookupHopsSig:mean 	8.6363636363636
scalar Network.dyn_peer[141] 	lookupTimeSig:mean 	1.5142857142857
scalar Network.dyn_peer[141] 	lookupStabilitySig:mean 	0.91381281201861
scalar Network.dyn_peer[141] 	lookupHopsSig:mean 	14.285714285714
scalar Network.dyn_peer[142] 	lookupTimeSig:mean 	1.8
scalar Network.dyn_peer[142] 	lookupStabilitySig:mean 	0.59113924205303
scalar Network.dyn_peer[142] 	lookupHopsSig:mean 	17.5
scalar Network.dyn_peer[143] 	lookupTimeSig:mean 	1.225
scalar Network.dyn_peer[143] 	lookupStabilitySig:mean 	0.5740945180878
scalar Network.dyn_peer[143] 	lookupHopsSig:mean 	11.5
scalar Network.dyn_peer[144] 	lookupTimeSig:mean 	1.75
scalar Network.dyn_peer[144] 	lookupStabilitySig:mean 	0.46401514858007
scalar Network.dyn_peer[144] 	lookupHopsSig:mean 	17
scalar Network.dyn_peer[145] 	lookupTimeSig:mean 	0.91
scalar Network.dyn_peer[145] 	lookupStabilitySig:mean 	0.77642505727708
scalar Network.dyn_peer[145] 	lookupHopsSig:mean 	8.2
scalar Network.dyn_peer[146] 	lookupTimeSig:mean 	1.1
scalar Network.dyn_peer[146] 	lookupStabilitySig:mean 	0.51743419840932
scalar Network.dyn_peer[146] 	lookupHopsSig:mean 	10.25
scalar Network.dyn_peer[147] 	lookupTimeSig:mean 	0.36666666666667
scalar Network.dyn_peer[147] 	lookupStabilitySig:mean 	0.44444443782171
scalar Network.dyn_peer[147] 	lookupHopsSig:mean 	3
scalar Network.dyn_peer[148] 	lookupTimeSig:mean 	1.2285714285714
scalar Network.dyn_peer[148] 	lookupStabilitySig:mean 	0.91392776849014
scalar Network.dyn_peer[148] 	lookupHopsSig:mean 	11.428571428571
scalar Network.dyn_peer[149] 	lookupTimeSig:mean 	1.0666666666667
scalar Network.dyn_peer[149] 	lookupStabilitySig:mean 	0.77732278003047
scalar Network.dyn_peer[149] 	lookupHopsSig:mean 	9.8333333333333
scalar Network.dyn_peer[150] 	lookupTimeSig:mean 	1.2333333333333
scalar Network.dyn_peer[150] 	lookupStabilitySig:mean 	0.88923526431123
scalar Network.dyn_peer[150] 	lookupHopsSig:mean 	11.444444444444
scalar Network.dyn_peer[151] 	lookupTimeSig:mean 	0.6
scalar Network.dyn_peer[151] 	lookupStabilitySig:mean 	0.54599567502737
scalar Network.dyn_peer[151] 	lookupHopsSig:mean 	5.25
scalar Network.dyn_peer[152] 	lookupTimeSig:mean 	1.95
scalar Network.dyn_peer[152] 	lookupStabilitySig:mean 	0.75685018114746
scalar Network.dyn_peer[152] 	lookupHopsSig:mean 	18.75
scalar Network.dyn_peer[153] 	lookupTimeSig:mean 	1.1428571428571
scalar Network.dyn_peer[153] 	lookupStabilitySig:mean 	0.90639549201088
scalar Network.dyn_peer[153] 	lookupHopsSig:mean 	10.571428571429
scalar Network.dyn_peer[154] 	lookupTimeSig:mean 	1
scalar Network.dyn_peer[154] 	lookupStabilitySig:mean 	0.54169957339764
scalar Network.dyn_peer[154] 	lookupHopsSig:mean 	9.2
scalar Network.dyn_peer[155] 	lookupTimeSig:mean 	1.22
scalar Network.dyn_peer[155] 	lookupStabilitySig:mean 	0.83125351369381
scalar Network.dyn_peer[155] 	lookupHopsSig:mean 	11.4
scalar Network.dyn_peer[156] 	lookupTimeSig:mean 	1.9
scalar Network.dyn_peer[156] 	lookupStabilitySig:mean 	0.74422225604455
scalar Network.dyn_peer[156] 	lookupHopsSig:mean 	18.333333333333
scalar Network.dyn_peer[157] 	lookupTimeSig:mean 	1.2625
scalar Network.dyn_peer[157] 	lookupStabilitySig:mean 	0.84385088016279
scalar Network.dyn_peer[157] 	lookupHopsSig:mean 	11.75
scalar Network.dyn_peer[158] 	lookupTimeSig:mean 	1.1
scalar Network.dyn_peer[158] 	lookupStabilitySig:mean 	0.81610117355982
scalar Network.dyn_peer[158] 	lookupHopsSig:mean 	10.166666666667
scalar Network.dyn_peer[159] 	lookupTimeSig:mean 	1.28
scalar Network.dyn_peer[159] 	lookupStabilitySig:mean 	0.68586882390082
scalar Network.dyn_peer[159] 	lookupHopsSig:mean 	12
scalar Network.dyn_peer[160] 	lookupTimeSig:mean 	1.675
scalar Network.dyn_peer[160] 	lookupStabilitySig:mean 	0.78076087869704
scalar Network.dyn_peer[160] 	lookupHopsSig:mean 	16
scalar Network.dyn_peer[161] 	lookupTimeSig:mean 	1.4666666666667
scalar Network.dyn_peer[161] 	lookupStabilitySig:mean 	0.68143115689357
scalar Network.dyn_peer[161] 	lookupHopsSig:mean 	14
scalar Network.dyn_peer[162] 	lookupTimeSig:mean 	1.1375
scalar Network.dyn_peer[162] 	lookupStabilitySig:mean 	0.71797424496617
scalar Network.dyn_peer[162] 	lookupHopsSig:mean 	10.5
scalar Network.dyn_peer[163] 	lookupTimeSig:mean 	2.4
scalar Network.dyn_peer[163] 	lookupStabilitySig:mean 	0.88834990281612
scalar Network.dyn_peer[163] 	lookupHopsSig:mean 	23.25
scalar Network.dyn_peer[164] 	lookupTimeSig:mean 	1.12
scalar Network.dyn_peer[164] 	lookupStabilitySig:mean 	0.57461343258619
scalar Network.dyn_peer[164] 	lookupHopsSig:mean 	10.4
scalar Network.dyn_peer[165] 	lookupTimeSig:mean 	1.1714285714286
scalar Network.dyn_peer[165] 	lookupStabilitySig:mean 	0.82374779028552
scalar Network.dyn_peer[165] 	lookupHopsSig:mean 	10.857142857143
scalar Network.dyn_peer[166] 	lookupTimeSig:mean 	1.0181818181818
scalar Network.dyn_peer[166] 	lookupStabilitySig:mean 	0.80471475481648
scalar Network.dyn_peer[166] 	lookupHopsSig:mean 	9.2727272727273
scalar Network.dyn_peer[167] 	lookupTimeSig:mean 	1.46
scalar Network.dyn_peer[167] 	lookupStabilitySig:mean 	0.81514054611325
scalar Network.dyn_peer[167] 	lookupHopsSig:mean 	13.8
scalar Network.dyn_peer[168] 	lookupTimeSig:mean 	1.14
scalar Network.dyn_peer[168] 	lookupStabilitySig:mean 	0.7983598716557
scalar Network.dyn_peer[168] 	lookupHopsSig:mean 	10.6
scalar Network.dyn_peer[169] 	lookupTimeSig:mean 	0.625
scalar Network.dyn_peer[169] 	lookupStabilitySig:mean 	0.53047638852149
scalar Network.dyn_peer[169] 	lookupHopsSig:mean 	5.5
scalar Network.dyn_peer[170] 	lookupTimeSig:mean 	1.1545454545455
scalar Network.dyn_peer[170] 	lookupStabilitySig:mean 	0.91021414668384
scalar Network.dyn_peer[170] 	lookupHopsSig:mean 	10.636363636364
scalar Network.dyn_peer[171] 	lookupTimeSig:mean 	1.2
scalar Network.dyn_peer[171] 	lookupStabilitySig:mean 	0.70507736504078
scalar Network.dyn_peer[171] 	lookupHopsSig:mean 	11.166666666667
scalar Network.dyn_peer[172] 	lookupTimeSig:mean 	1.0923076923077
scalar Network.dyn_peer[172] 	lookupStabilitySig:mean 	0.87851967469144
scalar Network.dyn_peer[172] 	lookupHopsSig:mean 	10
scalar Network.dyn_peer[173] 	lookupTimeSig:mean 	0.95
scalar Network.dyn_peer[173] 	lookupStabilitySig:mean 	0.81214206910226
scalar Network.dyn_peer[173] 	lookupHopsSig:mean 	8.625
scalar Network.dyn_peer[174] 	lookupTimeSig:mean 	0.95
scalar Network.dyn_peer[174] 	lookupStabilitySig:mean 	0.480109680444
scalar Network.dyn_peer[174] 	lookupHopsSig:mean 	8.75
scalar Network.dyn_peer[175] 	lookupTimeSig:mean 	0.925
scalar Network.dyn_peer[175] 	lookupStabilitySig:mean 	0.6908921347931
scalar Network.dyn_peer[175] 	lookupHopsSig:mean 	8.5
scalar Network.dyn_peer[176] 	lookupTimeSig:mean 	1.85
scalar Network.dyn_peer[176] 	lookupStabilitySig:mean 	0.78064968623221
scalar Network.dyn_peer[176] 	lookupHopsSig:mean 	17.75
scalar Network.dyn_peer[177] 	lookupTimeSig:mean 	1.4333333333333
scalar Network.dyn_peer[177] 	lookupStabilitySig:mean 	0.4322120125095
scalar Network.dyn_peer[177] 	lookupHopsSig:mean 	13.666666666667
scalar Network.dyn_peer[178] 	lookupTimeSig:mean 	1.4
scalar Network.dyn_peer[178] 	lookupStabilitySig:mean 	0.88056828975677
scalar Network.dyn_peer[178] 	lookupHopsSig:mean 	13.1
scalar Network.dyn_peer[179] 	lookupTimeSig:mean 	1.04
scalar Network.dyn_peer[179] 	lookupStabilitySig:mean 	0.63148516342044
scalar Network.dyn_peer[179] 	lookupHopsSig:mean 	9.6
scalar Network.dyn_peer[180] 	lookupTimeSig:mean 	1.36
scalar Network.dyn_peer[180] 	lookupStabilitySig:mean 	0.60178457573056
scalar Network.dyn_peer[180] 	lookupHopsSig:mean 	12.8
scalar Network.dyn_peer[181] 	lookupTimeSig:mean 	0.71
scalar Network.dyn_peer[181] 	lookupStabilitySig:mean 	0.89177545714192
scalar Network.dyn_peer[181] 	lookupHopsSig:mean 	6.2
scalar Network.dyn_peer[182] 	lookupTimeSig:mean 	1.2
scalar Network.dyn_peer[182] 	lookupStabilitySig:mean 	0.73607902526855
scalar Network.dyn_peer[182] 	lookupHopsSig:mean 	11.2
scalar Network.dyn_peer[183] 	lookupTimeSig:mean 	0.87142857142857
scalar Network.dyn_peer[183] 	lookupStabilitySig:mean 	0.69751459859045
scalar Network.dyn_peer[183] 	lookupHopsSig:mean 	7.8571428571429
scalar Network.dyn_peer[184] 	lookupTimeSig:mean 	1.63
scalar Network.dyn_peer[184] 	lookupStabilitySig:mean 	0.9091061687097
scalar Network.dyn_peer[184] 	lookupHopsSig:mean 	15.4
scalar Network.dyn_peer[185] 	lookupTimeSig:mean 	2.6666666666667
scalar Network.dyn_peer[185] 	lookupStabilitySig:mean 	0.60800738135974
scalar Network.dyn_peer[185] 	lookupHopsSig:mean 	26
scalar Network.dyn_peer[186] 	lookupTimeSig:mean 	0.85454545454545
scalar Network.dyn_peer[186] 	lookupStabilitySig:mean 	0.91941741815853
scalar Network.dyn_peer[186] 	lookupHopsSig:mean 	7.6363636363636
scalar Network.dyn_peer[187] 	lookupTimeSig:mean 	2.5
scalar Network.dyn_peer[187] 	lookupStabilitySig:mean 	0.55209790915251
scalar Network.dyn_peer[187] 	lookupHopsSig:mean 	24.5
scalar Network.dyn_peer[188] 	lookupTimeSig:mean 	2.2
scalar Network.dyn_peer[188] 	lookupStabilitySig:mean 	0.5787605283161
scalar Network.dyn_peer[188] 	lookupHopsSig:mean 	21.333333333333
scalar Network.dyn_peer[189] 	lookupTimeSig:mean 	1.5
scalar Network.dyn_peer[189] 	lookupStabilitySig:mean 	0.67863868052761
scalar Network.dyn_peer[189] 	lookupHopsSig:mean 	14.333333333333
scalar Network.dyn_peer[190] 	lookupTimeSig:mean 	1.1
scalar Network.dyn_peer[190] 	lookupStabilitySig:mean 	0.77268842086196
scalar Network.dyn_peer[190] 	lookupHopsSig:mean 	10.2
scalar Network.dyn_peer[191] 	lookupTimeSig:mean 	1.0333333333333
scalar Network.dyn_peer[191] 	lookupStabilitySig:mean 	0.4751082410415
scalar Network.dyn_peer[191] 	lookupHopsSig:mean 	9.6666666666667
scalar Network.dyn_peer[192] 	lookupTimeSig:mean 	1.1333333333333
scalar Network.dyn_peer[192] 	lookupStabilitySig:mean 	0.65340724401176
scalar Network.dyn_peer[192] 	lookupHopsSig:mean 	10.5
scalar Network.dyn_peer[193] 	lookupTimeSig:mean 	1.4
scalar Network.dyn_peer[193] 	lookupStabilitySig:mean 	0.90719584200997
scalar Network.dyn_peer[193] 	lookupHopsSig:mean 	13.125
scalar Network.dyn_peer[194] 	lookupTimeSig:mean 	1.175
scalar Network.dyn_peer[194] 	lookupStabilitySig:mean 	0.86738289163137
scalar Network.dyn_peer[194] 	lookupHopsSig:mean 	10.833333333333
scalar Network.dyn_peer[195] 	lookupTimeSig:mean 	1.08
scalar Network.dyn_peer[195] 	lookupStabilitySig:mean 	0.76523298919201
scalar Network.dyn_peer[195] 	lookupHopsSig:mean 	10
scalar Network.dyn_peer[196] 	lookupTimeSig:mean 	1.0555555555556
scalar Network.dyn_peer[196] 	lookupStabilitySig:mean 	0.76364222572496
scalar Network.dyn_peer[196] 	lookupHopsSig:mean 	9.6666666666667
scalar Network.dyn_peer[197] 	lookupTimeSig:mean 	1.1727272727273
scalar Network.dyn_peer[197] 	lookupStabilitySig:mean 	0.81221001616425
scalar Network.dyn_peer[197] 	lookupHopsSig:mean 	10.818181818182
scalar Network.dyn_peer[198] 	lookupTimeSig:mean 	1.6
scalar Network.dyn_peer[198] 	lookupStabilitySig:mean 	0.49424671009183
scalar Network.dyn_peer[198] 	lookupHopsSig:mean 	15.25
scalar Network.dyn_peer[199] 	lookupTimeSig:mean 	1.33
scalar Network.dyn_peer[199] 	lookupStabilitySig:mean 	0.82079621255398
scalar Network.dyn_peer[199] 	lookupHopsSig:mean 	12.4
scalar Network.dyn_peer[200] 	lookupTimeSig:mean 	1.2714285714286
scalar Network.dyn_peer[200] 	lookupStabilitySig:mean 	0.89533725034978
scalar Network.dyn_peer[200] 	lookupHopsSig:mean 	11.857142857143
scalar Network.dyn_peer[201] 	lookupTimeSig:mean 	1.4
scalar Network.dyn_peer[201] 	lookupStabilitySig:mean 	0.77751166708767
scalar Network.dyn_peer[201] 	lookupHopsSig:mean 	13.2
scalar Network.dyn_peer[202] 	lookupTimeSig:mean 	1.1166666666667
scalar Network.dyn_peer[202] 	lookupStabilitySig:mean 	0.71220032746593
scalar Network.dyn_peer[202] 	lookupHopsSig:mean 	10.333333333333
scalar Network.dyn_peer[203] 	lookupTimeSig:mean 	1.3
scalar Network.dyn_peer[203] 	lookupStabilitySig:mean 	0.76416438924415
scalar Network.dyn_peer[203] 	lookupHopsSig:mean 	12.142857142857
scalar Network.dyn_peer[204] 	lookupTimeSig:mean 	1.36
scalar Network.dyn_peer[204] 	lookupStabilitySig:mean 	0.69917195029557
scalar Network.dyn_peer[204] 	lookupHopsSig:mean 	12.8
scalar Network.dyn_peer[205] 	lookupTimeSig:mean 	1.44
scalar Network.dyn_peer[205] 	lookupStabilitySig:mean 	0.70498973727226
scalar Network.dyn_peer[205] 	lookupHopsSig:mean 	13.6
scalar Network.dyn_peer[206] 	lookupTimeSig:mean 	0.94
scalar Network.dyn_peer[206] 	lookupStabilitySig:mean 	0.80855635628104
scalar Network.dyn_peer[206] 	lookupHopsSig:mean 	8.6
scalar Network.dyn_peer[207] 	lookupTimeSig:mean 	0.9
scalar Network.dyn_peer[207] 	lookupStabilitySig:mean 	0.74166356911883
scalar Network.dyn_peer[207] 	lookupHopsSig:mean 	8.125
scalar Network.dyn_peer[208] 	lookupTimeSig:mean 	1.4
scalar Network.dyn_peer[208] 	lookupStabilitySig:mean 	0.51452019438148
scalar Network.dyn_peer[208] 	lookupHopsSig:mean 	13.25
scalar Network.dyn_peer[209] 	lookupTimeSig:mean 	2
scalar Network.dyn_peer[209] 	lookupStabilitySig:mean 	0.54591836035252
scalar Network.dyn_peer[209] 	lookupHopsSig:mean 	19.5
scalar Network.dyn_peer[210] 	lookupTimeSig:mean 	1.1153846153846
scalar Network.dyn_peer[210] 	lookupStabilitySig:mean 	0.93643536132116
scalar Network.dyn_peer[210] 	lookupHopsSig:mean 	10.230769230769
scalar Network.dyn_peer[211] 	lookupTimeSig:mean 	2.4666666666667
scalar Network.dyn_peer[211] 	lookupStabilitySig:mean 	0.74079979211092
scalar Network.dyn_peer[211] 	lookupHopsSig:mean 	24
scalar Network.dyn_peer[212] 	lookupTimeSig:mean 	1.86
scalar Network.dyn_peer[212] 	lookupStabilitySig:mean 	0.89604842104018
scalar Network.dyn_peer[212] 	lookupHopsSig:mean 	17.8
scalar Network.dyn_peer[213] 	lookupTimeSig:mean 	0.64
scalar Network.dyn_peer[213] 	lookupStabilitySig:mean 	0.57489008978009
scalar Network.dyn_peer[213] 	lookupHopsSig:mean 	5.6
scalar Network.dyn_peer[214] 	lookupTimeSig:mean 	1.5
scalar Network.dyn_peer[214] 	lookupStabilitySig:mean 	0.7137006384631
scalar Network.dyn_peer[214] 	lookupHopsSig:mean 	14.333333333333
scalar Network.dyn_peer[215] 	lookupTimeSig:mean 	2.3333333333333
scalar Network.dyn_peer[215] 	lookupStabilitySig:mean 	0.54549772789081
scalar Network.dyn_peer[215] 	lookupHopsSig:mean 	22.666666666667
scalar Network.dyn_peer[216] 	lookupTimeSig:mean 	1.2454545454545
scalar Network.dyn_peer[216] 	lookupStabilitySig:mean 	0.90299088617956
scalar Network.dyn_peer[216] 	lookupHopsSig:mean 	11.545454545455
scalar Network.dyn_peer[217] 	lookupTimeSig:mean 	1.15
scalar Network.dyn_peer[217] 	lookupStabilitySig:mean 	0.71092513203621
scalar Network.dyn_peer[217] 	lookupHopsSig:mean 	10.75
scalar Network.dyn_peer[218] 	lookupTimeSig:mean 	0.96666666666667
scalar Network.dyn_peer[218] 	lookupStabilitySig:mean 	0.88759106987466
scalar Network.dyn_peer[218] 	lookupHopsSig:mean 	8.75
scalar Network.dyn_peer[219] 	lookupTimeSig:mean 	1.28
scalar Network.dyn_peer[219] 	lookupStabilitySig:mean 	0.67634929306805
scalar Network.dyn_peer[219] 	lookupHopsSig:mean 	12
scalar Network.dyn_peer[220] 	lookupTimeSig:mean 	2.0333333333333
scalar Network.dyn_peer[220] 	lookupStabilitySig:mean 	0.59904371201992
scalar Network.dyn_peer[220] 	lookupHopsSig:mean 	19.666666666667
scalar Network.dyn_peer[221] 	lookupTimeSig:mean 	1.5
scalar Network.dyn_peer[221] 	lookupStabilitySig:mean 	0.79216238968074
scalar Network.dyn_peer[221] 	lookupHopsSig:mean 	14.2
scalar Network.dyn_peer[222] 	lookupTimeSig:mean 	1.7714285714286
scalar Network.dyn_peer[222] 	lookupStabilitySig:mean 	0.89992578886449
scalar Network.dyn_peer[222] 	lookupHopsSig:mean 	16.857142857143
scalar Network.dyn_peer[223] 	lookupTimeSig:mean 	1.6428571428571
scalar Network.dyn_peer[223] 	lookupStabilitySig:mean 	0.92694249509701
scalar Network.dyn_peer[223] 	lookupHopsSig:mean 	15.571428571429
scalar Network.dyn_peer[224] 	lookupTimeSig:mean 	1.1642857142857
scalar Network.dyn_peer[224] 	lookupStabilitySig:mean 	0.87761387428535
scalar Network.dyn_peer[224] 	lookupHopsSig:mean 	10.714285714286
scalar Network.dyn_peer[225] 	lookupTimeSig:mean 	1.6545454545455
scalar Network.dyn_peer[225] 	lookupStabilitySig:mean 	0.90102263472297
scalar Network.dyn_peer[225] 	lookupHopsSig:mean 	15.636363636364
scalar Network.dyn_peer[226] 	lookupTimeSig:mean 	1.4333333333333
scalar Network.dyn_peer[226] 	lookupStabilitySig:mean 	0.91283872495923
scalar Network.dyn_peer[226] 	lookupHopsSig:mean 	13.444444444444
scalar Network.dyn_peer[227] 	lookupTimeSig:mean 	0.73333333333333
scalar Network.dyn_peer[227] 	lookupStabilitySig:mean 	0.30713385343552
scalar Network.dyn_peer[227] 	lookupHopsSig:mean 	6.6666666666667
scalar Network.dyn_peer[228] 	lookupTimeSig:mean 	1.1666666666667
scalar Network.dyn_peer[228] 	lookupStabilitySig:mean 	0.68861593057712
scalar Network.dyn_peer[228] 	lookupHopsSig:mean 	10.833333333333
scalar Network.dyn_peer[229] 	lookupTimeSig:mean 	1.1
scalar Network.dyn_peer[229] 	lookupStabilitySig:mean 	0.6592730730772
scalar Network.dyn_peer[229] 	lookupHopsSig:mean 	10.333333333333
scalar Network.dyn_peer[230] 	lookupTimeSig:mean 	1.3142857142857
scalar Network.dyn_peer[230] 	lookupStabilitySig:mean 	0.89609629860414
scalar Network.dyn_peer[230] 	lookupHopsSig:mean 	12.285714285714
scalar Network.dyn_peer[231] 	lookupTimeSig:mean 	1.62
scalar Network.dyn_peer[231] 	lookupStabilitySig:mean 	0.90973902530968
scalar Network.dyn_peer[231] 	lookupHopsSig:mean 	15.4
scalar Network.dyn_peer[232] 	lookupTimeSig:mean 	2.05
scalar Network.dyn_peer[232] 	lookupStabilitySig:mean 	0.87820135243237
scalar Network.dyn_peer[232] 	lookupHopsSig:mean 	19.75
scalar Network.dyn_peer[233] 	lookupTimeSig:mean 	1.45
scalar Network.dyn_peer[233] 	lookupStabilitySig:mean 	0.85427604336292
scalar Network.dyn_peer[233] 	lookupHopsSig:mean 	13.75
scalar Network.dyn_peer[234] 	lookupTimeSig:mean 	1.675
scalar Network.dyn_peer[234] 	lookupStabilitySig:mean 	0.59672504663467
scalar Network.dyn_peer[234] 	lookupHopsSig:mean 	16
scalar Network.dyn_peer[235] 	lookupTimeSig:mean 	1.0923076923077
scalar Network.dyn_peer[235] 	lookupStabilitySig:mean 	0.93085586584101
scalar Network.dyn_peer[235] 	lookupHopsSig:mean 	10
scalar Network.dyn_peer[236] 	lookupTimeSig:mean 	1.6666666666667
scalar Network.dyn_peer[236] 	lookupStabilitySig:mean 	0.76630850012104
scalar Network.dyn_peer[236] 	lookupHopsSig:mean 	16
scalar Network.dyn_peer[237] 	lookupTimeSig:mean 	0.63333333333333
scalar Network.dyn_peer[237] 	lookupStabilitySig:mean 	0.38055553038915
scalar Network.dyn_peer[237] 	lookupHopsSig:mean 	5.6666666666667
scalar Network.dyn_peer[238] 	lookupTimeSig:mean 	1.22
scalar Network.dyn_peer[238] 	lookupStabilitySig:mean 	0.91963300332427
scalar Network.dyn_peer[238] 	lookupHopsSig:mean 	11.3
scalar Network.dyn_peer[239] 	lookupTimeSig:mean 	1.6166666666667
scalar Network.dyn_peer[239] 	lookupStabilitySig:mean 	0.86662739142776
scalar Network.dyn_peer[239] 	lookupHopsSig:mean 	15.333333333333
scalar Network.dyn_peer[240] 	lookupTimeSig:mean 	1.51
scalar Network.dyn_peer[240] 	lookupStabilitySig:mean 	0.90488789957017
scalar Network.dyn_peer[240] 	lookupHopsSig:mean 	14.2
scalar Network.dyn_peer[241] 	lookupTimeSig:mean 	0.8
scalar Network.dyn_peer[241] 	lookupStabilitySig:mean 	0.60304621886462
scalar Network.dyn_peer[241] 	lookupHopsSig:mean 	7.25
scalar Network.dyn_peer[242] 	lookupTimeSig:mean 	1.875
scalar Network.dyn_peer[242] 	lookupStabilitySig:mean 	0.84477985231206
scalar Network.dyn_peer[242] 	lookupHopsSig:mean 	18
scalar Network.dyn_peer[243] 	lookupTimeSig:mean 	1.6
scalar Network.dyn_peer[243] 	lookupStabilitySig:mean 	0.56664376799017
scalar Network.dyn_peer[243] 	lookupHopsSig:mean 	15.25
scalar Network.dyn_peer[244] 	lookupTimeSig:mean 	2.15
scalar Network.dyn_peer[244] 	lookupStabilitySig:mean 	0.375
scalar Network.dyn_peer[244] 	lookupHopsSig:mean 	21
scalar Network.dyn_peer[245] 	lookupTimeSig:mean 	0.83333333333333
scalar Network.dyn_peer[245] 	lookupStabilitySig:mean 	0.58079268534978
scalar Network.dyn_peer[245] 	lookupHopsSig:mean 	7.6666666666667
scalar Network.dyn_peer[246] 	lookupTimeSig:mean 	1.2142857142857
scalar Network.dyn_peer[246] 	lookupStabilitySig:mean 	0.88375951549304
scalar Network.dyn_peer[246] 	lookupHopsSig:mean 	11.285714285714
scalar Network.dyn_peer[247] 	lookupTimeSig:mean 	0.85
scalar Network.dyn_peer[247] 	lookupStabilitySig:mean 	0.52454902417958
scalar Network.dyn_peer[247] 	lookupHopsSig:mean 	7.75
scalar Network.dyn_peer[248] 	lookupTimeSig:mean 	1.4833333333333
scalar Network.dyn_peer[248] 	lookupStabilitySig:mean 	0.91159352008253
scalar Network.dyn_peer[248] 	lookupHopsSig:mean 	14
scalar Network.dyn_peer[249] 	lookupTimeSig:mean 	1
scalar Network.dyn_peer[249] 	lookupStabilitySig:mean 	0.59772275388241
scalar Network.dyn_peer[249] 	lookupHopsSig:mean 	9.25
scalar Network.dyn_peer[250] 	lookupTimeSig:mean 	0.7
scalar Network.dyn_peer[250] 	lookupStabilitySig:mean 	0.64517542719841
scalar Network.dyn_peer[250] 	lookupHopsSig:mean 	6.3333333333333
scalar Network.dyn_peer[251] 	lookupTimeSig:mean 	0.65
scalar Network.dyn_peer[251] 	lookupStabilitySig:mean 	0.54041666537523
scalar Network.dyn_peer[251] 	lookupHopsSig:mean 	5.75
scalar Network.dyn_peer[252] 	lookupTimeSig:mean 	1.8
scalar Network.dyn_peer[252] 	lookupStabilitySig:mean 	0.48725055903196
scalar Network.dyn_peer[252] 	lookupHopsSig:mean 	17.5
scalar Network.dyn_peer[253] 	lookupTimeSig:mean 	1.48
scalar Network.dyn_peer[253] 	lookupStabilitySig:mean 	0.89741009809077
scalar Network.dyn_peer[253] 	lookupHopsSig:mean 	14
scalar Network.dyn_peer[254] 	lookupTimeSig:mean 	0.92
scalar Network.dyn_peer[254] 	lookupStabilitySig:mean 	0.82400171500631
scalar Network.dyn_peer[254] 	lookupHopsSig:mean 	8.3
scalar Network.dyn_peer[255] 	lookupTimeSig:mean 	2.1666666666667
scalar Network.dyn_peer[255] 	lookupStabilitySig:mean 	0.7579380782942
scalar Network.dyn_peer[255] 	lookupHopsSig:mean 	21
scalar Network.dyn_peer[256] 	lookupTimeSig:mean 	1
scalar Network.dyn_peer[256] 	lookupStabilitySig:mean 	0.59401180408895
scalar Network.dyn_peer[256] 	lookupHopsSig:mean 	9.25
scalar Network.dyn_peer[257] 	lookupTimeSig:mean 	1.32
scalar Network.dyn_peer[257] 	lookupStabilitySig:mean 	0.94708265382797
scalar Network.dyn_peer[257] 	lookupHopsSig:mean 	12.3
scalar Network.dyn_peer[258] 	lookupTimeSig:mean 	1.075
scalar Network.dyn_peer[258] 	lookupStabilitySig:mean 	0.89096067275386
scalar Network.dyn_peer[258] 	lookupHopsSig:mean 	9.875
scalar Network.dyn_peer[259] 	lookupTimeSig:mean 	0.99375
scalar Network.dyn_peer[259] 	lookupStabilitySig:mean 	0.96355182385014
scalar Network.dyn_peer[259] 	lookupHopsSig:mean 	9
scalar Network.dyn_peer[260] 	lookupTimeSig:mean 	1.08
scalar Network.dyn_peer[260] 	lookupStabilitySig:mean 	0.60099435076118
scalar Network.dyn_peer[260] 	lookupHopsSig:mean 	10
scalar Network.dyn_peer[261] 	lookupTimeSig:mean 	0.60833333333333
scalar Network.dyn_peer[261] 	lookupStabilitySig:mean 	0.87258863387009
scalar Network.dyn_peer[261] 	lookupHopsSig:mean 	5.1666666666667
scalar Network.dyn_peer[262] 	lookupTimeSig:mean 	1.7
scalar Network.dyn_peer[262] 	lookupStabilitySig:mean 	0.75632345955819
scalar Network.dyn_peer[262] 	lookupHopsSig:mean 	16.25
scalar Network.dyn_peer[263] 	lookupTimeSig:mean 	1.76
scalar Network.dyn_peer[263] 	lookupStabilitySig:mean 	0.60129130333662
scalar Network.dyn_peer[263] 	lookupHopsSig:mean 	16.8
scalar Network.dyn_peer[264] 	lookupTimeSig:mean 	1.64
scalar Network.dyn_peer[264] 	lookupStabilitySig:mean 	0.92610554276034
scalar Network.dyn_peer[264] 	lookupHopsSig:mean 	15.5
scalar Network.dyn_peer[265] 	lookupTimeSig:mean 	0.8
scalar Network.dyn_peer[265] 	lookupStabilitySig:mean 	0.59136491194367
scalar Network.dyn_peer[265] 	lookupHopsSig:mean 	7.2
scalar Network.dyn_peer[266] 	lookupTimeSig:mean 	1.36
scalar Network.dyn_peer[266] 	lookupStabilitySig:mean 	0.89836425539106
scalar Network.dyn_peer[266] 	lookupHopsSig:mean 	12.8
scalar Network.dyn_peer[267] 	lookupTimeSig:mean 	0.9
scalar Network.dyn_peer[267] 	lookupStabilitySig:mean 	0.81865917152858
scalar Network.dyn_peer[267] 	lookupHopsSig:mean 	8.1428571428571
scalar Network.dyn_peer[268] 	lookupTimeSig:mean 	0.71428571428571
scalar Network.dyn_peer[268] 	lookupStabilitySig:mean 	0.78822564120804
scalar Network.dyn_peer[268] 	lookupHopsSig:mean 	6.2857142857143
scalar Network.dyn_peer[269] 	lookupTimeSig:mean 	1.25
scalar Network.dyn_peer[269] 	lookupStabilitySig:mean 	0.21428573131561
scalar Network.dyn_peer[269] 	lookupHopsSig:mean 	12
scalar Network.dyn_peer[270] 	lookupTimeSig:mean 	0.85
scalar Network.dyn_peer[270] 	lookupStabilitySig:mean 	0.77195775078144
scalar Network.dyn_peer[270] 	lookupHopsSig:mean 	7.625
scalar Network.dyn_peer[271] 	lookupTimeSig:mean 	0.85
scalar Network.dyn_peer[271] 	lookupStabilitySig:mean 	0.35454543679953
scalar Network.dyn_peer[271] 	lookupHopsSig:mean 	8
scalar Network.dyn_peer[272] 	lookupTimeSig:mean 	1.4666666666667
scalar Network.dyn_peer[272] 	lookupStabilitySig:mean 	0.63757186134656
scalar Network.dyn_peer[272] 	lookupHopsSig:mean 	14
scalar Network.dyn_peer[273] 	lookupTimeSig:mean 	0.8
scalar Network.dyn_peer[273] 	lookupStabilitySig:mean 	0.8780906734589
scalar Network.dyn_peer[273] 	lookupHopsSig:mean 	7.1428571428571
scalar Network.dyn_peer[274] 	lookupTimeSig:mean 	1
scalar Network.dyn_peer[274] 	lookupStabilitySig:mean 	0.67923882479469
scalar Network.dyn_peer[274] 	lookupHopsSig:mean 	9.1666666666667
scalar Network.dyn_peer[275] 	lookupTimeSig:mean 	1.0333333333333
scalar Network.dyn_peer[275] 	lookupStabilitySig:mean 	0.35158728559812
scalar Network.dyn_peer[275] 	lookupHopsSig:mean 	9.6666666666667
scalar Network.dyn_peer[276] 	lookupTimeSig:mean 	1.6
scalar Network.dyn_peer[276] 	lookupStabilitySig:mean 	0.43836805224419
scalar Network.dyn_peer[276] 	lookupHopsSig:mean 	15.5
scalar Network.dyn_peer[277] 	lookupTimeSig:mean 	1.4357142857143
scalar Network.dyn_peer[277] 	lookupStabilitySig:mean 	0.92104698085625
scalar Network.dyn_peer[277] 	lookupHopsSig:mean 	13.428571428571
scalar Network.dyn_peer[278] 	lookupTimeSig:mean 	1.2777777777778
scalar Network.dyn_peer[278] 	lookupStabilitySig:mean 	0.93515922418899
scalar Network.dyn_peer[278] 	lookupHopsSig:mean 	11.888888888889
scalar Network.dyn_peer[279] 	lookupTimeSig:mean 	1.2533333333333
scalar Network.dyn_peer[279] 	lookupStabilitySig:mean 	0.8877201619558
scalar Network.dyn_peer[279] 	lookupHopsSig:mean 	11.6
scalar Network.dyn_peer[280] 	lookupTimeSig:mean 	1
scalar Network.dyn_peer[280] 	lookupStabilitySig:mean 	0.46997388079762
scalar Network.dyn_peer[280] 	lookupHopsSig:mean 	9.25
scalar Network.dyn_peer[281] 	lookupTimeSig:mean 	1.4818181818182
scalar Network.dyn_peer[281] 	lookupStabilitySig:mean 	0.89121824232015
scalar Network.dyn_peer[281] 	lookupHopsSig:mean 	13.909090909091
scalar Network.dyn_peer[282] 	lookupTimeSig:mean 	1.5333333333333
scalar Network.dyn_peer[282] 	lookupStabilitySig:mean 	0.89720551110804
scalar Network.dyn_peer[282] 	lookupHopsSig:mean 	14.5
scalar Network.dyn_peer[283] 	lookupTimeSig:mean 	1.95
scalar Network.dyn_peer[283] 	lookupStabilitySig:mean 	0.92403203584254
scalar Network.dyn_peer[283] 	lookupHopsSig:mean 	18.6
scalar Network.dyn_peer[284] 	lookupTimeSig:mean 	1.4
scalar Network.dyn_peer[284] 	lookupStabilitySig:mean 	0.4971988722682
scalar Network.dyn_peer[284] 	lookupHopsSig:mean 	13.5
scalar Network.dyn_peer[285] 	lookupTimeSig:mean 	1.6
scalar Network.dyn_peer[285] 	lookupStabilitySig:mean 	0.92304473300464
scalar Network.dyn_peer[285] 	lookupHopsSig:mean 	15.125
scalar Network.dyn_peer[286] 	lookupTimeSig:mean 	1.1454545454545
scalar Network.dyn_peer[286] 	lookupStabilitySig:mean 	0.89910831810399
scalar Network.dyn_peer[286] 	lookupHopsSig:mean 	10.545454545455
scalar Network.dyn_peer[287] 	lookupTimeSig:mean 	1.0333333333333
scalar Network.dyn_peer[287] 	lookupStabilitySig:mean 	0.39126333594322
scalar Network.dyn_peer[287] 	lookupHopsSig:mean 	9.6666666666667
scalar Network.dyn_peer[288] 	lookupTimeSig:mean 	1.3916666666667
scalar Network.dyn_peer[288] 	lookupStabilitySig:mean 	0.93476257310249
scalar Network.dyn_peer[288] 	lookupHopsSig:mean 	13
scalar Network.dyn_peer[289] 	lookupTimeSig:mean 	2.25
scalar Network.dyn_peer[289] 	lookupStabilitySig:mean 	0.41138210892677
scalar Network.dyn_peer[289] 	lookupHopsSig:mean 	22
scalar Network.dyn_peer[290] 	lookupTimeSig:mean 	1.6
scalar Network.dyn_peer[290] 	lookupStabilitySig:mean 	0.84412798061967
scalar Network.dyn_peer[290] 	lookupHopsSig:mean 	15.2
scalar Network.dyn_peer[291] 	lookupTimeSig:mean 	2.2
scalar Network.dyn_peer[291] 	lookupStabilitySig:mean 	0.74716647714376
scalar Network.dyn_peer[291] 	lookupHopsSig:mean 	21.333333333333
scalar Network.dyn_peer[292] 	lookupTimeSig:mean 	1.3375
scalar Network.dyn_peer[292] 	lookupStabilitySig:mean 	0.80217585922219
scalar Network.dyn_peer[292] 	lookupHopsSig:mean 	12.5
scalar Network.dyn_peer[293] 	lookupTimeSig:mean 	1.425
scalar Network.dyn_peer[293] 	lookupStabilitySig:mean 	0.85711070569232
scalar Network.dyn_peer[293] 	lookupHopsSig:mean 	13.5
scalar Network.dyn_peer[294] 	lookupTimeSig:mean 	1.2
scalar Network.dyn_peer[294] 	lookupStabilitySig:mean 	0.91514239375564
scalar Network.dyn_peer[294] 	lookupHopsSig:mean 	11.090909090909
scalar Network.dyn_peer[295] 	lookupTimeSig:mean 	2.6
scalar Network.dyn_peer[295] 	lookupStabilitySig:mean 	0.18429486453533
scalar Network.dyn_peer[295] 	lookupHopsSig:mean 	25.5
scalar Network.dyn_peer[296] 	lookupTimeSig:mean 	0.91111111111111
scalar Network.dyn_peer[296] 	lookupStabilitySig:mean 	0.82559284971406
scalar Network.dyn_peer[296] 	lookupHopsSig:mean 	8.2222222222222
scalar Network.dyn_peer[297] 	lookupTimeSig:mean 	1.0142857142857
scalar Network.dyn_peer[297] 	lookupStabilitySig:mean 	0.87054338445887
scalar Network.dyn_peer[297] 	lookupHopsSig:mean 	9.2857142857143
scalar Network.dyn_peer[298] 	lookupTimeSig:mean 	1.9333333333333
scalar Network.dyn_peer[298] 	lookupStabilitySig:mean 	0.80349157378078
scalar Network.dyn_peer[298] 	lookupHopsSig:mean 	18.666666666667
scalar Network.dyn_peer[299] 	lookupTimeSig:mean 	1.38
scalar Network.dyn_peer[299] 	lookupStabilitySig:mean 	0.79326920583844
scalar Network.dyn_peer[299] 	lookupHopsSig:mean 	13
scalar Network.dyn_peer[300] 	lookupTimeSig:mean 	0.9
scalar Network.dyn_peer[300] 	lookupStabilitySig:mean 	0.89896224346012
scalar Network.dyn_peer[300] 	lookupHopsSig:mean 	8.125
scalar Network.dyn_peer[301] 	lookupTimeSig:mean 	1.0076923076923
scalar Network.dyn_peer[301] 	lookupStabilitySig:mean 	0.92574186587276
scalar Network.dyn_peer[301] 	lookupHopsSig:mean 	9.1538461538462
scalar Network.dyn_peer[302] 	lookupTimeSig:mean 	0.95
scalar Network.dyn_peer[302] 	lookupStabilitySig:mean 	0.48464672639966
scalar Network.dyn_peer[302] 	lookupHopsSig:mean 	8.75
scalar Network.dyn_peer[303] 	lookupTimeSig:mean 	0.82857142857143
scalar Network.dyn_peer[303] 	lookupStabilitySig:mean 	0.73532906281097
scalar Network.dyn_peer[303] 	lookupHopsSig:mean 	7.4285714285714
scalar Network.dyn_peer[304] 	lookupTimeSig:mean 	1.02
scalar Network.dyn_peer[304] 	lookupStabilitySig:mean 	0.90720203118399
scalar Network.dyn_peer[304] 	lookupHopsSig:mean 	9.3
scalar Network.dyn_peer[305] 	lookupTimeSig:mean 	1.4
scalar Network.dyn_peer[305] 	lookupStabilitySig:mean 	0.47317813336849
scalar Network.dyn_peer[305] 	lookupHopsSig:mean 	13.5
scalar Network.dyn_peer[306] 	lookupTimeSig:mean 	1.4666666666667
scalar Network.dyn_peer[306] 	lookupStabilitySig:mean 	0.49722220997016
scalar Network.dyn_peer[306] 	lookupHopsSig:mean 	14
scalar Network.dyn_peer[307] 	lookupTimeSig:mean 	1.5142857142857
scalar Network.dyn_peer[307] 	lookupStabilitySig:mean 	0.9286608286202
scalar Network.dyn_peer[307] 	lookupHopsSig:mean 	14.285714285714
scalar Network.dyn_peer[308] 	lookupTimeSig:mean 	1.88
scalar Network.dyn_peer[308] 	lookupStabilitySig:mean 	0.89641912318766
scalar Network.dyn_peer[308] 	lookupHopsSig:mean 	18
scalar Network.dyn_peer[309] 	lookupTimeSig:mean 	2
scalar Network.dyn_peer[309] 	lookupStabilitySig:mean 	0.69162006055315
scalar Network.dyn_peer[309] 	lookupHopsSig:mean 	19.333333333333
scalar Network.dyn_peer[310] 	lookupTimeSig:mean 	3.65
scalar Network.dyn_peer[310] 	lookupStabilitySig:mean 	0.68485815823078
scalar Network.dyn_peer[310] 	lookupHopsSig:mean 	36
scalar Network.dyn_peer[311] 	lookupTimeSig:mean 	1.0571428571429
scalar Network.dyn_peer[311] 	lookupStabilitySig:mean 	0.86195151906993
scalar Network.dyn_peer[311] 	lookupHopsSig:mean 	9.7142857142857
scalar Network.dyn_peer[312] 	lookupTimeSig:mean 	1.96
scalar Network.dyn_peer[312] 	lookupStabilitySig:mean 	0.87976402565837
scalar Network.dyn_peer[312] 	lookupHopsSig:mean 	18.8
scalar Network.dyn_peer[313] 	lookupTimeSig:mean 	1.43
scalar Network.dyn_peer[313] 	lookupStabilitySig:mean 	0.88425656491891
scalar Network.dyn_peer[313] 	lookupHopsSig:mean 	13.4
scalar Network.dyn_peer[314] 	lookupTimeSig:mean 	1.5571428571429
scalar Network.dyn_peer[314] 	lookupStabilitySig:mean 	0.9069895464927
scalar Network.dyn_peer[314] 	lookupHopsSig:mean 	14.714285714286
scalar Network.dyn_peer[315] 	lookupTimeSig:mean 	0.85
scalar Network.dyn_peer[315] 	lookupStabilitySig:mean 	0.71346153318882
scalar Network.dyn_peer[315] 	lookupHopsSig:mean 	7.75
scalar Network.dyn_peer[316] 	lookupTimeSig:mean 	1.28
scalar Network.dyn_peer[316] 	lookupStabilitySig:mean 	0.57465803623199
scalar Network.dyn_peer[316] 	lookupHopsSig:mean 	12
scalar Network.dyn_peer[317] 	lookupTimeSig:mean 	1.2
scalar Network.dyn_peer[317] 	lookupStabilitySig:mean 	0.90318264005085
scalar Network.dyn_peer[317] 	lookupHopsSig:mean 	11.111111111111
scalar Network.dyn_peer[318] 	lookupTimeSig:mean 	1.0666666666667
scalar Network.dyn_peer[318] 	lookupStabilitySig:mean 	0.81276504167666
scalar Network.dyn_peer[318] 	lookupHopsSig:mean 	9.8333333333333
scalar Network.dyn_peer[319] 	lookupTimeSig:mean 	1.3
scalar Network.dyn_peer[319] 	lookupStabilitySig:mean 	0.75017699878663
scalar Network.dyn_peer[319] 	lookupHopsSig:mean 	12.25
scalar Network.dyn_peer[320] 	lookupTimeSig:mean 	1.425
scalar Network.dyn_peer[320] 	lookupStabilitySig:mean 	0.77562575880438
scalar Network.dyn_peer[320] 	lookupHopsSig:mean 	13.5
scalar Network.dyn_peer[321] 	lookupTimeSig:mean 	2.3
scalar Network.dyn_peer[321] 	lookupStabilitySig:mean 	0.56177433207631
scalar Network.dyn_peer[321] 	lookupHopsSig:mean 	22.333333333333
scalar Network.dyn_peer[322] 	lookupTimeSig:mean 	1.1666666666667
scalar Network.dyn_peer[322] 	lookupStabilitySig:mean 	0.4045635064443
scalar Network.dyn_peer[322] 	lookupHopsSig:mean 	11
scalar Network.dyn_peer[323] 	lookupTimeSig:mean 	1.6888888888889
scalar Network.dyn_peer[323] 	lookupStabilitySig:mean 	0.94105023249156
scalar Network.dyn_peer[323] 	lookupHopsSig:mean 	16
scalar Network.dyn_peer[324] 	lookupTimeSig:mean 	0.7375
scalar Network.dyn_peer[324] 	lookupStabilitySig:mean 	0.82445692602778
scalar Network.dyn_peer[324] 	lookupHopsSig:mean 	6.5
scalar Network.dyn_peer[325] 	lookupTimeSig:mean 	1.16
scalar Network.dyn_peer[325] 	lookupStabilitySig:mean 	0.71344480365515
scalar Network.dyn_peer[325] 	lookupHopsSig:mean 	10.8
scalar Network.dyn_peer[326] 	lookupTimeSig:mean 	1.0285714285714
scalar Network.dyn_peer[326] 	lookupStabilitySig:mean 	0.7460825775883
scalar Network.dyn_peer[326] 	lookupHopsSig:mean 	9.4285714285714
scalar Network.dyn_peer[327] 	lookupTimeSig:mean 	1.8285714285714
scalar Network.dyn_peer[327] 	lookupStabilitySig:mean 	0.93540732070271
scalar Network.dyn_peer[327] 	lookupHopsSig:mean 	17.428571428571
scalar Network.dyn_peer[328] 	lookupTimeSig:mean 	1.3333333333333
scalar Network.dyn_peer[328] 	lookupStabilitySig:mean 	0.70746607830127
scalar Network.dyn_peer[328] 	lookupHopsSig:mean 	12.666666666667
scalar Network.dyn_peer[329] 	lookupTimeSig:mean 	0.7875
scalar Network.dyn_peer[329] 	lookupStabilitySig:mean 	0.79078591428697
scalar Network.dyn_peer[329] 	lookupHopsSig:mean 	7
scalar Network.dyn_peer[330] 	lookupTimeSig:mean 	1.2444444444444
scalar Network.dyn_peer[330] 	lookupStabilitySig:mean 	0.92346000795563
scalar Network.dyn_peer[330] 	lookupHopsSig:mean 	11.555555555556
scalar Network.dyn_peer[331] 	lookupTimeSig:mean 	1.625
scalar Network.dyn_peer[331] 	lookupStabilitySig:mean 	0.83646528888494
scalar Network.dyn_peer[331] 	lookupHopsSig:mean 	15.5
scalar Network.dyn_peer[332] 	lookupTimeSig:mean 	1.6
scalar Network.dyn_peer[332] 	lookupStabilitySig:mean 	0.93620674374203
scalar Network.dyn_peer[332] 	lookupHopsSig:mean 	15.111111111111
scalar Network.dyn_peer[333] 	lookupTimeSig:mean 	1.1181818181818
scalar Network.dyn_peer[333] 	lookupStabilitySig:mean 	0.94546314083378
scalar Network.dyn_peer[333] 	lookupHopsSig:mean 	10.272727272727
scalar Network.dyn_peer[334] 	lookupTimeSig:mean 	1.15
scalar Network.dyn_peer[334] 	lookupStabilitySig:mean 	0.57094594463706
scalar Network.dyn_peer[334] 	lookupHopsSig:mean 	11
scalar Network.dyn_peer[335] 	lookupTimeSig:mean 	0.98333333333333
scalar Network.dyn_peer[335] 	lookupStabilitySig:mean 	0.80641503445804
scalar Network.dyn_peer[335] 	lookupHopsSig:mean 	9
scalar Network.dyn_peer[336] 	lookupTimeSig:mean 	1.8333333333333
scalar Network.dyn_peer[336] 	lookupStabilitySig:mean 	0.64538683493932
scalar Network.dyn_peer[336] 	lookupHopsSig:mean 	17.666666666667
scalar Network.dyn_peer[337] 	lookupTimeSig:mean 	1.3666666666667
scalar Network.dyn_peer[337] 	lookupStabilitySig:mean 	0.94502677245893
scalar Network.dyn_peer[337] 	lookupHopsSig:mean 	12.777777777778
scalar Network.dyn_peer[338] 	lookupTimeSig:mean 	1
scalar Network.dyn_peer[338] 	lookupStabilitySig:mean 	0.83688887543976
scalar Network.dyn_peer[338] 	lookupHopsSig:mean 	9.2
scalar Network.dyn_peer[339] 	lookupTimeSig:mean 	1
scalar Network.dyn_peer[339] 	lookupStabilitySig:mean 	0.75595874498997
scalar Network.dyn_peer[339] 	lookupHopsSig:mean 	9.1428571428571
scalar Network.dyn_peer[340] 	lookupTimeSig:mean 	2.18
scalar Network.dyn_peer[340] 	lookupStabilitySig:mean 	0.89591433927417
scalar Network.dyn_peer[340] 	lookupHopsSig:mean 	21
scalar Network.dyn_peer[341] 	lookupTimeSig:mean 	2.2
scalar Network.dyn_peer[341] 	lookupStabilitySig:mean 	0.82205082227786
scalar Network.dyn_peer[341] 	lookupHopsSig:mean 	21.333333333333
scalar Network.dyn_peer[342] 	lookupTimeSig:mean 	1.2666666666667
scalar Network.dyn_peer[342] 	lookupStabilitySig:mean 	0.71834795425336
scalar Network.dyn_peer[342] 	lookupHopsSig:mean 	12
scalar Network.dyn_peer[343] 	lookupTimeSig:mean 	1.06
scalar Network.dyn_peer[343] 	lookupStabilitySig:mean 	0.61073937341571
scalar Network.dyn_peer[343] 	lookupHopsSig:mean 	9.8
scalar Network.dyn_peer[344] 	lookupTimeSig:mean 	1.17
scalar Network.dyn_peer[344] 	lookupStabilitySig:mean 	0.87442929567769
scalar Network.dyn_peer[344] 	lookupHopsSig:mean 	10.8
scalar Network.dyn_peer[345] 	lookupTimeSig:mean 	1.3428571428571
scalar Network.dyn_peer[345] 	lookupStabilitySig:mean 	0.93948850907119
scalar Network.dyn_peer[345] 	lookupHopsSig:mean 	12.5
scalar Network.dyn_peer[346] 	lookupTimeSig:mean 	0.98333333333333
scalar Network.dyn_peer[346] 	lookupStabilitySig:mean 	0.91216210795877
scalar Network.dyn_peer[346] 	lookupHopsSig:mean 	8.9166666666667
scalar Network.dyn_peer[347] 	lookupTimeSig:mean 	1.6
scalar Network.dyn_peer[347] 	lookupStabilitySig:mean 	0.85207227617502
scalar Network.dyn_peer[347] 	lookupHopsSig:mean 	15.25
scalar Network.dyn_peer[348] 	lookupTimeSig:mean 	1.1
scalar Network.dyn_peer[348] 	lookupStabilitySig:mean 	0.90615115500987
scalar Network.dyn_peer[348] 	lookupHopsSig:mean 	10.1
scalar Network.dyn_peer[349] 	lookupTimeSig:mean 	1.4916666666667
scalar Network.dyn_peer[349] 	lookupStabilitySig:mean 	0.94648937601596
scalar Network.dyn_peer[349] 	lookupHopsSig:mean 	14
scalar Network.dyn_peer[350] 	lookupTimeSig:mean 	1.25
scalar Network.dyn_peer[350] 	lookupStabilitySig:mean 	0.84633246343583
scalar Network.dyn_peer[350] 	lookupHopsSig:mean 	11.666666666667
scalar Network.dyn_peer[351] 	lookupTimeSig:mean 	1.2916666666667
scalar Network.dyn_peer[351] 	lookupStabilitySig:mean 	0.95300121333761
scalar Network.dyn_peer[351] 	lookupHopsSig:mean 	12
scalar Network.dyn_peer[352] 	lookupTimeSig:mean 	1.1111111111111
scalar Network.dyn_peer[352] 	lookupStabilitySig:mean 	0.94250354496762
scalar Network.dyn_peer[352] 	lookupHopsSig:mean 	10.222222222222
scalar Network.dyn_peer[353] 	lookupTimeSig:mean 	1.625
scalar Network.dyn_peer[353] 	lookupStabilitySig:mean 	0.93877220891106
scalar Network.dyn_peer[353] 	lookupHopsSig:mean 	15.333333333333
scalar Network.dyn_peer[354] 	lookupTimeSig:mean 	1.4454545454545
scalar Network.dyn_peer[354] 	lookupStabilitySig:mean 	0.82294358977709
scalar Network.dyn_peer[354] 	lookupHopsSig:mean 	13.545454545455
scalar Network.dyn_peer[355] 	lookupTimeSig:mean 	1.525
scalar Network.dyn_peer[355] 	lookupStabilitySig:mean 	0.55450088530779
scalar Network.dyn_peer[355] 	lookupHopsSig:mean 	14.5
scalar Network.dyn_peer[356] 	lookupTimeSig:mean 	1.1363636363636
scalar Network.dyn_peer[356] 	lookupStabilitySig:mean 	0.8779110388661
scalar Network.dyn_peer[356] 	lookupHopsSig:mean 	10.454545454545
scalar Network.dyn_peer[357] 	lookupTimeSig:mean 	1.08
scalar Network.dyn_peer[357] 	lookupStabilitySig:mean 	0.8568866321817
scalar Network.dyn_peer[357] 	lookupHopsSig:mean 	9.9
scalar Network.dyn_peer[358] 	lookupTimeSig:mean 	0.93333333333333
scalar Network.dyn_peer[358] 	lookupStabilitySig:mean 	0.77815287016953
scalar Network.dyn_peer[358] 	lookupHopsSig:mean 	8.5
scalar Network.dyn_peer[359] 	lookupTimeSig:mean 	1.5666666666667
scalar Network.dyn_peer[359] 	lookupStabilitySig:mean 	0.92999103561872
scalar Network.dyn_peer[359] 	lookupHopsSig:mean 	14.777777777778
scalar Network.dyn_peer[360] 	lookupTimeSig:mean 	2.85
scalar Network.dyn_peer[360] 	lookupStabilitySig:mean 	0.63798307627439
scalar Network.dyn_peer[360] 	lookupHopsSig:mean 	28
scalar Network.dyn_peer[361] 	lookupTimeSig:mean 	1.08
scalar Network.dyn_peer[361] 	lookupStabilitySig:mean 	0.72856564633548
scalar Network.dyn_peer[361] 	lookupHopsSig:mean 	10
scalar Network.dyn_peer[362] 	lookupTimeSig:mean 	1.375
scalar Network.dyn_peer[362] 	lookupStabilitySig:mean 	0.91134106228128
scalar Network.dyn_peer[362] 	lookupHopsSig:mean 	12.875
scalar Network.dyn_peer[363] 	lookupTimeSig:mean 	1.64
scalar Network.dyn_peer[363] 	lookupStabilitySig:mean 	0.88990807123482
scalar Network.dyn_peer[363] 	lookupHopsSig:mean 	15.6
scalar Network.dyn_peer[364] 	lookupTimeSig:mean 	0.9
scalar Network.dyn_peer[364] 	lookupStabilitySig:mean 	0.63014065176249
scalar Network.dyn_peer[364] 	lookupHopsSig:mean 	8.2
scalar Network.dyn_peer[365] 	lookupTimeSig:mean 	1.325
scalar Network.dyn_peer[365] 	lookupStabilitySig:mean 	0.79834559094161
scalar Network.dyn_peer[365] 	lookupHopsSig:mean 	12.5
scalar Network.dyn_peer[366] 	lookupTimeSig:mean 	1.8333333333333
scalar Network.dyn_peer[366] 	lookupStabilitySig:mean 	0.72499744966626
scalar Network.dyn_peer[366] 	lookupHopsSig:mean 	17.666666666667
scalar Network.dyn_peer[367] 	lookupTimeSig:mean 	0.75
scalar Network.dyn_peer[367] 	lookupStabilitySig:mean 	0.25
scalar Network.dyn_peer[367] 	lookupHopsSig:mean 	7
scalar Network.dyn_peer[368] 	lookupTimeSig:mean 	1.46
scalar Network.dyn_peer[368] 	lookupStabilitySig:mean 	0.8915901184082
scalar Network.dyn_peer[368] 	lookupHopsSig:mean 	13.8
scalar Network.dyn_peer[369] 	lookupTimeSig:mean 	1.3857142857143
scalar Network.dyn_peer[369] 	lookupStabilitySig:mean 	0.9205795851137
scalar Network.dyn_peer[369] 	lookupHopsSig:mean 	13
scalar Network.dyn_peer[370] 	lookupTimeSig:mean 	1.47
scalar Network.dyn_peer[370] 	lookupStabilitySig:mean 	0.94063960537314
scalar Network.dyn_peer[370] 	lookupHopsSig:mean 	13.8
scalar Network.dyn_peer[371] 	lookupTimeSig:mean 	1.5142857142857
scalar Network.dyn_peer[371] 	lookupStabilitySig:mean 	0.92226111197046
scalar Network.dyn_peer[371] 	lookupHopsSig:mean 	14.285714285714
scalar Network.dyn_peer[372] 	lookupTimeSig:mean 	1.5714285714286
scalar Network.dyn_peer[372] 	lookupStabilitySig:mean 	0.84944017550775
scalar Network.dyn_peer[372] 	lookupHopsSig:mean 	14.857142857143
scalar Network.dyn_peer[373] 	lookupTimeSig:mean 	1.3181818181818
scalar Network.dyn_peer[373] 	lookupStabilitySig:mean 	0.92465124262328
scalar Network.dyn_peer[373] 	lookupHopsSig:mean 	12.272727272727
scalar Network.dyn_peer[374] 	lookupTimeSig:mean 	1.42
scalar Network.dyn_peer[374] 	lookupStabilitySig:mean 	0.87453170605004
scalar Network.dyn_peer[374] 	lookupHopsSig:mean 	13.4
scalar Network.dyn_peer[375] 	lookupTimeSig:mean 	1.46
scalar Network.dyn_peer[375] 	lookupStabilitySig:mean 	0.92706383224577
scalar Network.dyn_peer[375] 	lookupHopsSig:mean 	13.7
scalar Network.dyn_peer[376] 	lookupTimeSig:mean 	1.95
scalar Network.dyn_peer[376] 	lookupStabilitySig:mean 	0.63516034279019
scalar Network.dyn_peer[376] 	lookupHopsSig:mean 	18.75
scalar Network.dyn_peer[377] 	lookupTimeSig:mean 	1.625
scalar Network.dyn_peer[377] 	lookupStabilitySig:mean 	0.84725371748209
scalar Network.dyn_peer[377] 	lookupHopsSig:mean 	15.5
scalar Network.dyn_peer[378] 	lookupTimeSig:mean 	1.24
scalar Network.dyn_peer[378] 	lookupStabilitySig:mean 	0.88146898178384
scalar Network.dyn_peer[378] 	lookupHopsSig:mean 	11.6
scalar Network.dyn_peer[379] 	lookupTimeSig:mean 	1.325
scalar Network.dyn_peer[379] 	lookupStabilitySig:mean 	0.76925156963989
scalar Network.dyn_peer[379] 	lookupHopsSig:mean 	12.5
scalar Network.dyn_peer[380] 	lookupTimeSig:mean 	1.3857142857143
scalar Network.dyn_peer[380] 	lookupStabilitySig:mean 	0.92557475503002
scalar Network.dyn_peer[380] 	lookupHopsSig:mean 	13
scalar Network.dyn_peer[381] 	lookupTimeSig:mean 	1.2666666666667
scalar Network.dyn_peer[381] 	lookupStabilitySig:mean 	0.83377129926036
scalar Network.dyn_peer[381] 	lookupHopsSig:mean 	11.833333333333
scalar Network.dyn_peer[382] 	lookupTimeSig:mean 	1.3
scalar Network.dyn_peer[382] 	lookupStabilitySig:mean 	0.44421768188477
scalar Network.dyn_peer[382] 	lookupHopsSig:mean 	12.5
scalar Network.dyn_peer[383] 	lookupTimeSig:mean 	1.48
scalar Network.dyn_peer[383] 	lookupStabilitySig:mean 	0.81474131271243
scalar Network.dyn_peer[383] 	lookupHopsSig:mean 	14
scalar Network.dyn_peer[384] 	lookupTimeSig:mean 	0.9875
scalar Network.dyn_peer[384] 	lookupStabilitySig:mean 	0.94198304021847
scalar Network.dyn_peer[384] 	lookupHopsSig:mean 	8.9375
scalar Network.dyn_peer[385] 	lookupTimeSig:mean 	1.24
scalar Network.dyn_peer[385] 	lookupStabilitySig:mean 	0.72057717069983
scalar Network.dyn_peer[385] 	lookupHopsSig:mean 	11.6
scalar Network.dyn_peer[386] 	lookupTimeSig:mean 	1.6777777777778
scalar Network.dyn_peer[386] 	lookupStabilitySig:mean 	0.88026204932895
scalar Network.dyn_peer[386] 	lookupHopsSig:mean 	15.888888888889
scalar Network.dyn_peer[387] 	lookupTimeSig:mean 	1.7
scalar Network.dyn_peer[387] 	lookupStabilitySig:mean 	0.73131036013365
scalar Network.dyn_peer[387] 	lookupHopsSig:mean 	16.333333333333
scalar Network.dyn_peer[388] 	lookupTimeSig:mean 	1.125
scalar Network.dyn_peer[388] 	lookupStabilitySig:mean 	0.77750929724425
scalar Network.dyn_peer[388] 	lookupHopsSig:mean 	10.5
scalar Network.dyn_peer[389] 	lookupTimeSig:mean 	1.1
scalar Network.dyn_peer[389] 	lookupStabilitySig:mean 	0.9447356916831
scalar Network.dyn_peer[389] 	lookupHopsSig:mean 	10.071428571429
scalar Network.dyn_peer[390] 	lookupTimeSig:mean 	0.95
scalar Network.dyn_peer[390] 	lookupStabilitySig:mean 	0.54604784958065
scalar Network.dyn_peer[390] 	lookupHopsSig:mean 	8.75
scalar Network.dyn_peer[391] 	lookupTimeSig:mean 	0.86
scalar Network.dyn_peer[391] 	lookupStabilitySig:mean 	0.81833839919418
scalar Network.dyn_peer[391] 	lookupHopsSig:mean 	7.8
scalar Network.dyn_peer[392] 	lookupTimeSig:mean 	1.8333333333333
scalar Network.dyn_peer[392] 	lookupStabilitySig:mean 	0.82410643560191
scalar Network.dyn_peer[392] 	lookupHopsSig:mean 	17.666666666667
scalar Network.dyn_peer[393] 	lookupTimeSig:mean 	1.7333333333333
scalar Network.dyn_peer[393] 	lookupStabilitySig:mean 	0.70049552122752
scalar Network.dyn_peer[393] 	lookupHopsSig:mean 	16.666666666667
scalar Network.dyn_peer[394] 	lookupTimeSig:mean 	2.525
scalar Network.dyn_peer[394] 	lookupStabilitySig:mean 	0.80754515272565
scalar Network.dyn_peer[394] 	lookupHopsSig:mean 	24.5
scalar Network.dyn_peer[395] 	lookupTimeSig:mean 	1.4875
scalar Network.dyn_peer[395] 	lookupStabilitySig:mean 	0.92477437423076
scalar Network.dyn_peer[395] 	lookupHopsSig:mean 	14
scalar Network.dyn_peer[396] 	lookupTimeSig:mean 	1.025
scalar Network.dyn_peer[396] 	lookupStabilitySig:mean 	0.83900713850744
scalar Network.dyn_peer[396] 	lookupHopsSig:mean 	9.375
scalar Network.dyn_peer[397] 	lookupTimeSig:mean 	1.3
scalar Network.dyn_peer[397] 	lookupStabilitySig:mean 	0.84420857081811
scalar Network.dyn_peer[397] 	lookupHopsSig:mean 	12.166666666667
scalar Network.dyn_peer[398] 	lookupTimeSig:mean 	1.9
scalar Network.dyn_peer[398] 	lookupStabilitySig:mean 	0.79322959855199
scalar Network.dyn_peer[398] 	lookupHopsSig:mean 	18.333333333333
scalar Network.dyn_peer[399] 	lookupTimeSig:mean 	2.95
scalar Network.dyn_peer[399] 	lookupStabilitySig:mean 	0.3125
scalar Network.dyn_peer[399] 	lookupHopsSig:mean 	29
scalar Network.dyn_peer[400] 	lookupTimeSig:mean 	-nan
scalar Network.dyn_peer[400] 	lookupStabilitySig:mean 	-nan
scalar Network.dyn_peer[400] 	lookupHopsSig:mean 	-nan
scalar Network.dyn_peer[401] 	lookupTimeSig:mean 	-nan
scalar Network.dyn_peer[401] 	lookupStabilitySig:mean 	-nan
scalar Network.dyn_peer[401] 	lookupHopsSig:mean 	-nan
scalar Network.dyn_peer[402] 	lookupTimeSig:mean 	-nan
scalar Network.dyn_peer[402] 	lookupStabilitySig:mean 	-nan
scalar Network.dyn_peer[402] 	lookupHopsSig:mean 	-nan
scalar Network.dyn_peer[403] 	lookupTimeSig:mean 	-nan
scalar Network.dyn_peer[403] 	lookupStabilitySig:mean 	-nan
scalar Network.dyn_peer[403] 	lookupHopsSig:mean 	-nan
scalar Network.dyn_peer[404] 	lookupTimeSig:mean 	-nan
scalar Network.dyn_peer[404] 	lookupStabilitySig:mean 	-nan
scalar Network.dyn_peer[404] 	lookupHopsSig:mean 	-nan
scalar Network.dyn_peer[405] 	lookupTimeSig:mean 	-nan
scalar Network.dyn_peer[405] 	lookupStabilitySig:mean 	-nan
scalar Network.dyn_peer[405] 	lookupHopsSig:mean 	-nan
scalar Network.dyn_peer[406] 	lookupTimeSig:mean 	-nan
scalar Network.dyn_peer[406] 	lookupStabilitySig:mean 	-nan
scalar Network.dyn_peer[406] 	lookupHopsSig:mean 	-nan
scalar Network.dyn_peer[407] 	lookupTimeSig:mean 	-nan
scalar Network.dyn_peer[407] 	lookupStabilitySig:mean 	-nan
scalar Network.dyn_peer[407] 	lookupHopsSig:mean 	-nan
scalar Network.dyn_peer[408] 	lookupTimeSig:mean 	-nan
scalar Network.dyn_peer[408] 	lookupStabilitySig:mean 	-nan
scalar Network.dyn_peer[408] 	lookupHopsSig:mean 	-nan
scalar Network.dyn_peer[409] 	lookupTimeSig:mean 	-nan
scalar Network.dyn_peer[409] 	lookupStabilitySig:mean 	-nan
scalar Network.dyn_peer[409] 	lookupHopsSig:mean 	-nan
scalar Network.dyn_peer[410] 	lookupTimeSig:mean 	-nan
scalar Network.dyn_peer[410] 	lookupStabilitySig:mean 	-nan
scalar Network.dyn_peer[410] 	lookupHopsSig:mean 	-nan
scalar Network.dyn_peer[411] 	lookupTimeSig:mean 	-nan
scalar Network.dyn_peer[411] 	lookupStabilitySig:mean 	-nan
scalar Network.dyn_peer[411] 	lookupHopsSig:mean 	-nan
scalar Network.dyn_peer[412] 	lookupTimeSig:mean 	-nan
scalar Network.dyn_peer[412] 	lookupStabilitySig:mean 	-nan
scalar Network.dyn_peer[412] 	lookupHopsSig:mean 	-nan
scalar Network.dyn_peer[413] 	lookupTimeSig:mean 	-nan
scalar Network.dyn_peer[413] 	lookupStabilitySig:mean 	-nan
scalar Network.dyn_peer[413] 	lookupHopsSig:mean 	-nan
scalar Network.dyn_peer[414] 	lookupTimeSig:mean 	-nan
scalar Network.dyn_peer[414] 	lookupStabilitySig:mean 	-nan
scalar Network.dyn_peer[414] 	lookupHopsSig:mean 	-nan
scalar Network.dyn_peer[415] 	lookupTimeSig:mean 	-nan
scalar Network.dyn_peer[415] 	lookupStabilitySig:mean 	-nan
scalar Network.dyn_peer[415] 	lookupHopsSig:mean 	-nan
scalar Network.dyn_peer[416] 	lookupTimeSig:mean 	-nan
scalar Network.dyn_peer[416] 	lookupStabilitySig:mean 	-nan
scalar Network.dyn_peer[416] 	lookupHopsSig:mean 	-nan
scalar Network.dyn_peer[417] 	lookupTimeSig:mean 	-nan
scalar Network.dyn_peer[417] 	lookupStabilitySig:mean 	-nan
scalar Network.dyn_peer[417] 	lookupHopsSig:mean 	-nan
scalar Network.dyn_peer[418] 	lookupTimeSig:mean 	-nan
scalar Network.dyn_peer[418] 	lookupStabilitySig:mean 	-nan
scalar Network.dyn_peer[418] 	lookupHopsSig:mean 	-nan
scalar Network.dyn_peer[419] 	lookupTimeSig:mean 	-nan
scalar Network.dyn_peer[419] 	lookupStabilitySig:mean 	-nan
scalar Network.dyn_peer[419] 	lookupHopsSig:mean 	-nan
scalar Network.dyn_peer[420] 	lookupTimeSig:mean 	-nan
scalar Network.dyn_peer[420] 	lookupStabilitySig:mean 	-nan
scalar Network.dyn_peer[420] 	lookupHopsSig:mean 	-nan
scalar Network.dyn_peer[421] 	lookupTimeSig:mean 	-nan
scalar Network.dyn_peer[421] 	lookupStabilitySig:mean 	-nan
scalar Network.dyn_peer[421] 	lookupHopsSig:mean 	-nan
scalar Network.dyn_peer[422] 	lookupTimeSig:mean 	-nan
scalar Network.dyn_peer[422] 	lookupStabilitySig:mean 	-nan
scalar Network.dyn_peer[422] 	lookupHopsSig:mean 	-nan
scalar Network.dyn_peer[423] 	lookupTimeSig:mean 	-nan
scalar Network.dyn_peer[423] 	lookupStabilitySig:mean 	-nan
scalar Network.dyn_peer[423] 	lookupHopsSig:mean 	-nan
scalar Network.dyn_peer[424] 	lookupTimeSig:mean 	-nan
[...]
scalar Network.dyn_peer[883] 	lookupTimeSig:mean 	-nan
scalar Network.dyn_peer[883] 	lookupStabilitySig:mean 	-nan
scalar Network.dyn_peer[883] 	lookupHopsSig:mean 	-nan
scalar Network.dyn_peer[884] 	lookupTimeSig:mean 	-nan
scalar Network.dyn_peer[884] 	lookupStabilitySig:mean 	-nan
scalar Network.dyn_peer[884] 	lookupHopsSig:mean 	-nan
scalar Network.dyn_peer[885] 	lookupTimeSig:mean 	-nan
scalar Network.dyn_peer[885] 	lookupStabilitySig:mean 	-nan
scalar Network.dyn_peer[885] 	lookupHopsSig:mean 	-nan
scalar Network.dyn_peer[886] 	lookupTimeSig:mean 	-nan
scalar Network.dyn_peer[886] 	lookupStabilitySig:mean 	-nan
scalar Network.dyn_peer[886] 	lookupHopsSig:mean 	-nan
scalar Network.dyn_peer[887] 	lookupTimeSig:mean 	-nan
scalar Network.dyn_peer[887] 	lookupStabilitySig:mean 	-nan
scalar Network.dyn_peer[887] 	lookupHopsSig:mean 	-nan
scalar Network.dyn_peer[888] 	lookupTimeSig:mean 	-nan
scalar Network.dyn_peer[888] 	lookupStabilitySig:mean 	-nan
scalar Network.dyn_peer[888] 	lookupHopsSig:mean 	-nan
scalar Network.dyn_peer[889] 	lookupTimeSig:mean 	-nan
scalar Network.dyn_peer[889] 	lookupStabilitySig:mean 	-nan
scalar Network.dyn_peer[889] 	lookupHopsSig:mean 	-nan
scalar Network.dyn_peer[890] 	lookupTimeSig:mean 	-nan
scalar Network.dyn_peer[890] 	lookupStabilitySig:mean 	-nan
scalar Network.dyn_peer[890] 	lookupHopsSig:mean 	-nan
scalar Network.dyn_peer[891] 	lookupTimeSig:mean 	-nan
scalar Network.dyn_peer[891] 	lookupStabilitySig:mean 	-nan
scalar Network.dyn_peer[891] 	lookupHopsSig:mean 	-nan
scalar Network.dyn_peer[892] 	lookupTimeSig:mean 	-nan
scalar Network.dyn_peer[892] 	lookupStabilitySig:mean 	-nan
scalar Network.dyn_peer[892] 	lookupHopsSig:mean 	-nan
scalar Network.dyn_peer[893] 	lookupTimeSig:mean 	-nan
scalar Network.dyn_peer[893] 	lookupStabilitySig:mean 	-nan
scalar Network.dyn_peer[893] 	lookupHopsSig:mean 	-nan
scalar Network.dyn_peer[894] 	lookupTimeSig:mean 	-nan
scalar Network.dyn_peer[894] 	lookupStabilitySig:mean 	-nan
scalar Network.dyn_peer[894] 	lookupHopsSig:mean 	-nan
scalar Network.dyn_peer[895] 	lookupTimeSig:mean 	-nan
scalar Network.dyn_peer[895] 	lookupStabilitySig:mean 	-nan
scalar Network.dyn_peer[895] 	lookupHopsSig:mean 	-nan
scalar Network.dyn_peer[896] 	lookupTimeSig:mean 	-nan
scalar Network.dyn_peer[896] 	lookupStabilitySig:mean 	-nan
scalar Network.dyn_peer[896] 	lookupHopsSig:mean 	-nan
scalar Network.dyn_peer[897] 	lookupTimeSig:mean 	-nan
scalar Network.dyn_peer[897] 	lookupStabilitySig:mean 	-nan
scalar Network.dyn_peer[897] 	lookupHopsSig:mean 	-nan
scalar Network.dyn_peer[898] 	lookupTimeSig:mean 	-nan
scalar Network.dyn_peer[898] 	lookupStabilitySig:mean 	-nan
scalar Network.dyn_peer[898] 	lookupHopsSig:mean 	-nan
scalar Network.dyn_peer[899] 	lookupTimeSig:mean 	-nan
scalar Network.dyn_peer[899] 	lookupStabilitySig:mean 	-nan
scalar Network.dyn_peer[899] 	lookupHopsSig:mean 	-nan
scalar Network.dyn_peer[900] 	lookupTimeSig:mean 	-nan
scalar Network.dyn_peer[900] 	lookupStabilitySig:mean 	-nan
scalar Network.dyn_peer[900] 	lookupHopsSig:mean 	-nan
scalar Network.dyn_peer[901] 	lookupTimeSig:mean 	-nan
scalar Network.dyn_peer[901] 	lookupStabilitySig:mean 	-nan
scalar Network.dyn_peer[901] 	lookupHopsSig:mean 	-nan
scalar Network.dyn_peer[902] 	lookupTimeSig:mean 	-nan
scalar Network.dyn_peer[902] 	lookupStabilitySig:mean 	-nan
scalar Network.dyn_peer[902] 	lookupHopsSig:mean 	-nan
scalar Network.dyn_peer[903] 	lookupTimeSig:mean 	-nan
scalar Network.dyn_peer[903] 	lookupStabilitySig:mean 	-nan
scalar Network.dyn_peer[903] 	lookupHopsSig:mean 	-nan
scalar Network.dyn_peer[904] 	lookupTimeSig:mean 	-nan
scalar Network.dyn_peer[904] 	lookupStabilitySig:mean 	-nan
scalar Network.dyn_peer[904] 	lookupHopsSig:mean 	-nan
scalar Network.dyn_peer[905] 	lookupTimeSig:mean 	-nan
scalar Network.dyn_peer[905] 	lookupStabilitySig:mean 	-nan
scalar Network.dyn_peer[905] 	lookupHopsSig:mean 	-nan
scalar Network.dyn_peer[906] 	lookupTimeSig:mean 	-nan
scalar Network.dyn_peer[906] 	lookupStabilitySig:mean 	-nan
scalar Network.dyn_peer[906] 	lookupHopsSig:mean 	-nan
scalar Network.dyn_peer[907] 	lookupTimeSig:mean 	-nan
scalar Network.dyn_peer[907] 	lookupStabilitySig:mean 	-nan
scalar Network.dyn_peer[907] 	lookupHopsSig:mean 	-nan
scalar Network.dyn_peer[908] 	lookupTimeSig:mean 	-nan
scalar Network.dyn_peer[908] 	lookupStabilitySig:mean 	-nan
scalar Network.dyn_peer[908] 	lookupHopsSig:mean 	-nan
scalar Network.dyn_peer[909] 	lookupTimeSig:mean 	-nan
scalar Network.dyn_peer[909] 	lookupStabilitySig:mean 	-nan
scalar Network.dyn_peer[909] 	lookupHopsSig:mean 	-nan
scalar Network.dyn_peer[910] 	lookupTimeSig:mean 	-nan
scalar Network.dyn_peer[910] 	lookupStabilitySig:mean 	-nan
scalar Network.dyn_peer[910] 	lookupHopsSig:mean 	-nan
scalar Network.dyn_peer[911] 	lookupTimeSig:mean 	-nan
scalar Network.dyn_peer[911] 	lookupStabilitySig:mean 	-nan
scalar Network.dyn_peer[911] 	lookupHopsSig:mean 	-nan
scalar Network.dyn_peer[912] 	lookupTimeSig:mean 	-nan
scalar Network.dyn_peer[912] 	lookupStabilitySig:mean 	-nan
scalar Network.dyn_peer[912] 	lookupHopsSig:mean 	-nan
scalar Network.dyn_peer[913] 	lookupTimeSig:mean 	-nan
scalar Network.dyn_peer[913] 	lookupStabilitySig:mean 	-nan
scalar Network.dyn_peer[913] 	lookupHopsSig:mean 	-nan
scalar Network.dyn_peer[914] 	lookupTimeSig:mean 	-nan
scalar Network.dyn_peer[914] 	lookupStabilitySig:mean 	-nan
scalar Network.dyn_peer[914] 	lookupHopsSig:mean 	-nan
scalar Network.dyn_peer[915] 	lookupTimeSig:mean 	-nan
scalar Network.dyn_peer[915] 	lookupStabilitySig:mean 	-nan
scalar Network.dyn_peer[915] 	lookupHopsSig:mean 	-nan
scalar Network.dyn_peer[916] 	lookupTimeSig:mean 	-nan
scalar Network.dyn_peer[916] 	lookupStabilitySig:mean 	-nan
scalar Network.dyn_peer[916] 	lookupHopsSig:mean 	-nan
scalar Network.dyn_peer[917] 	lookupTimeSig:mean 	-nan
scalar Network.dyn_peer[917] 	lookupStabilitySig:mean 	-nan
scalar Network.dyn_peer[917] 	lookupHopsSig:mean 	-nan
scalar Network.dyn_peer[918] 	lookupTimeSig:mean 	-nan
scalar Network.dyn_peer[918] 	lookupStabilitySig:mean 	-nan
scalar Network.dyn_peer[918] 	lookupHopsSig:mean 	-nan
scalar Network.dyn_peer[919] 	lookupTimeSig:mean 	-nan
scalar Network.dyn_peer[919] 	lookupStabilitySig:mean 	-nan
scalar Network.dyn_peer[919] 	lookupHopsSig:mean 	-nan
scalar Network.dyn_peer[920] 	lookupTimeSig:mean 	-nan
scalar Network.dyn_peer[920] 	lookupStabilitySig:mean 	-nan
scalar Network.dyn_peer[920] 	lookupHopsSig:mean 	-nan
scalar Network.dyn_peer[921] 	lookupTimeSig:mean 	-nan
scalar Network.dyn_peer[921] 	lookupStabilitySig:mean 	-nan
scalar Network.dyn_peer[921] 	lookupHopsSig:mean 	-nan
scalar Network.dyn_peer[922] 	lookupTimeSig:mean 	-nan
scalar Network.dyn_peer[922] 	lookupStabilitySig:mean 	-nan
scalar Network.dyn_peer[922] 	lookupHopsSig:mean 	-nan
scalar Network.dyn_peer[923] 	lookupTimeSig:mean 	-nan
scalar Network.dyn_peer[923] 	lookupStabilitySig:mean 	-nan
scalar Network.dyn_peer[923] 	lookupHopsSig:mean 	-nan
scalar Network.dyn_peer[924] 	lookupTimeSig:mean 	-nan
scalar Network.dyn_peer[924] 	lookupStabilitySig:mean 	-nan
scalar Network.dyn_peer[924] 	lookupHopsSig:mean 	-nan
scalar Network.dyn_peer[925] 	lookupTimeSig:mean 	-nan
scalar Network.dyn_peer[925] 	lookupStabilitySig:mean 	-nan
scalar Network.dyn_peer[925] 	lookupHopsSig:mean 	-nan
scalar Network.dyn_peer[926] 	lookupTimeSig:mean 	-nan
scalar Network.dyn_peer[926] 	lookupStabilitySig:mean 	-nan
scalar Network.dyn_peer[926] 	lookupHopsSig:mean 	-nan
scalar Network.dyn_peer[927] 	lookupTimeSig:mean 	-nan
scalar Network.dyn_peer[927] 	lookupStabilitySig:mean 	-nan
scalar Network.dyn_peer[927] 	lookupHopsSig:mean 	-nan
scalar Network.dyn_peer[928] 	lookupTimeSig:mean 	-nan
scalar Network.dyn_peer[928] 	lookupStabilitySig:mean 	-nan
scalar Network.dyn_peer[928] 	lookupHopsSig:mean 	-nan
scalar Network.dyn_peer[929] 	lookupTimeSig:mean 	-nan
scalar Network.dyn_peer[929] 	lookupStabilitySig:mean 	-nan
scalar Network.dyn_peer[929] 	lookupHopsSig:mean 	-nan
scalar Network.dyn_peer[930] 	lookupTimeSig:mean 	-nan
scalar Network.dyn_peer[930] 	lookupStabilitySig:mean 	-nan
scalar Network.dyn_peer[930] 	lookupHopsSig:mean 	-nan
scalar Network.dyn_peer[931] 	lookupTimeSig:mean 	-nan
scalar Network.dyn_peer[931] 	lookupStabilitySig:mean 	-nan
scalar Network.dyn_peer[931] 	lookupHopsSig:mean 	-nan
scalar Network.dyn_peer[932] 	lookupTimeSig:mean 	-nan
scalar Network.dyn_peer[932] 	lookupStabilitySig:mean 	-nan
scalar Network.dyn_peer[932] 	lookupHopsSig:mean 	-nan
scalar Network.dyn_peer[933] 	lookupTimeSig:mean 	-nan
scalar Network.dyn_peer[933] 	lookupStabilitySig:mean 	-nan
scalar Network.dyn_peer[933] 	lookupHopsSig:mean 	-nan
scalar Network.dyn_peer[934] 	lookupTimeSig:mean 	-nan
scalar Network.dyn_peer[934] 	lookupStabilitySig:mean 	-nan
scalar Network.dyn_peer[934] 	lookupHopsSig:mean 	-nan
scalar Network.dyn_peer[935] 	lookupTimeSig:mean 	-nan
scalar Network.dyn_peer[935] 	lookupStabilitySig:mean 	-nan
scalar Network.dyn_peer[935] 	lookupHopsSig:mean 	-nan
scalar Network.dyn_peer[936] 	lookupTimeSig:mean 	-nan
scalar Network.dyn_peer[936] 	lookupStabilitySig:mean 	-nan
scalar Network.dyn_peer[936] 	lookupHopsSig:mean 	-nan
scalar Network.dyn_peer[937] 	lookupTimeSig:mean 	-nan
scalar Network.dyn_peer[937] 	lookupStabilitySig:mean 	-nan
scalar Network.dyn_peer[937] 	lookupHopsSig:mean 	-nan
scalar Network.dyn_peer[938] 	lookupTimeSig:mean 	-nan
scalar Network.dyn_peer[938] 	lookupStabilitySig:mean 	-nan
scalar Network.dyn_peer[938] 	lookupHopsSig:mean 	-nan
scalar Network.dyn_peer[939] 	lookupTimeSig:mean 	-nan
scalar Network.dyn_peer[939] 	lookupStabilitySig:mean 	-nan
scalar Network.dyn_peer[939] 	lookupHopsSig:mean 	-nan
scalar Network.dyn_peer[940] 	lookupTimeSig:mean 	-nan
scalar Network.dyn_peer[940] 	lookupStabilitySig:mean 	-nan
scalar Network.dyn_peer[940] 	lookupHopsSig:mean 	-nan
scalar Network.dyn_peer[941] 	lookupTimeSig:mean 	-nan
scalar Network.dyn_peer[941] 	lookupStabilitySig:mean 	-nan
scalar Network.dyn_peer[941] 	lookupHopsSig:mean 	-nan
scalar Network.dyn_peer[942] 	lookupTimeSig:mean 	-nan
scalar Network.dyn_peer[942] 	lookupStabilitySig:mean 	-nan
scalar Network.dyn_peer[942] 	lookupHopsSig:mean 	-nan
scalar Network.dyn_peer[943] 	lookupTimeSig:mean 	-nan
scalar Network.dyn_peer[943] 	lookupStabilitySig:mean 	-nan
scalar Network.dyn_peer[943] 	lookupHopsSig:mean 	-nan
scalar Network.dyn_peer[944] 	lookupTimeSig:mean 	-nan
scalar Network.dyn_peer[944] 	lookupStabilitySig:mean 	-nan
scalar Network.dyn_peer[944] 	lookupHopsSig:mean 	-nan
scalar Network.dyn_peer[945] 	lookupTimeSig:mean 	-nan
scalar Network.dyn_peer[945] 	lookupStabilitySig:mean 	-nan
scalar Network.dyn_peer[945] 	lookupHopsSig:mean 	-nan
scalar Network.dyn_peer[946] 	lookupTimeSig:mean 	-nan
scalar Network.dyn_peer[946] 	lookupStabilitySig:mean 	-nan
scalar Network.dyn_peer[946] 	lookupHopsSig:mean 	-nan
scalar Network.dyn_peer[947] 	lookupTimeSig:mean 	-nan
scalar Network.dyn_peer[947] 	lookupStabilitySig:mean 	-nan
scalar Network.dyn_peer[947] 	lookupHopsSig:mean 	-nan
scalar Network.dyn_peer[948] 	lookupTimeSig:mean 	-nan
scalar Network.dyn_peer[948] 	lookupStabilitySig:mean 	-nan
scalar Network.dyn_peer[948] 	lookupHopsSig:mean 	-nan
scalar Network.dyn_peer[949] 	lookupTimeSig:mean 	-nan
scalar Network.dyn_peer[949] 	lookupStabilitySig:mean 	-nan
scalar Network.dyn_peer[949] 	lookupHopsSig:mean 	-nan
scalar Network.dyn_peer[950] 	lookupTimeSig:mean 	-nan
scalar Network.dyn_peer[950] 	lookupStabilitySig:mean 	-nan
scalar Network.dyn_peer[950] 	lookupHopsSig:mean 	-nan
scalar Network.dyn_peer[951] 	lookupTimeSig:mean 	-nan
scalar Network.dyn_peer[951] 	lookupStabilitySig:mean 	-nan
scalar Network.dyn_peer[951] 	lookupHopsSig:mean 	-nan
scalar Network.dyn_peer[952] 	lookupTimeSig:mean 	-nan
scalar Network.dyn_peer[952] 	lookupStabilitySig:mean 	-nan
scalar Network.dyn_peer[952] 	lookupHopsSig:mean 	-nan
scalar Network.dyn_peer[953] 	lookupTimeSig:mean 	-nan
scalar Network.dyn_peer[953] 	lookupStabilitySig:mean 	-nan
scalar Network.dyn_peer[953] 	lookupHopsSig:mean 	-nan
scalar Network.dyn_peer[954] 	lookupTimeSig:mean 	-nan
scalar Network.dyn_peer[954] 	lookupStabilitySig:mean 	-nan
scalar Network.dyn_peer[954] 	lookupHopsSig:mean 	-nan
scalar Network.dyn_peer[955] 	lookupTimeSig:mean 	-nan
scalar Network.dyn_peer[955] 	lookupStabilitySig:mean 	-nan
scalar Network.dyn_peer[955] 	lookupHopsSig:mean 	-nan
scalar Network.dyn_peer[956] 	lookupTimeSig:mean 	-nan
scalar Network.dyn_peer[956] 	lookupStabilitySig:mean 	-nan
scalar Network.dyn_peer[956] 	lookupHopsSig:mean 	-nan
scalar Network.dyn_peer[957] 	lookupTimeSig:mean 	-nan
scalar Network.dyn_peer[957] 	lookupStabilitySig:mean 	-nan
scalar Network.dyn_peer[957] 	lookupHopsSig:mean 	-nan
scalar Network.dyn_peer[958] 	lookupTimeSig:mean 	-nan
scalar Network.dyn_peer[958] 	lookupStabilitySig:mean 	-nan
scalar Network.dyn_peer[958] 	lookupHopsSig:mean 	-nan
scalar Network.dyn_peer[959] 	lookupTimeSig:mean 	-nan
scalar Network.dyn_peer[959] 	lookupStabilitySig:mean 	-nan
scalar Network.dyn_peer[959] 	lookupHopsSig:mean 	-nan
scalar Network.dyn_peer[960] 	lookupTimeSig:mean 	-nan
scalar Network.dyn_peer[960] 	lookupStabilitySig:mean 	-nan
scalar Network.dyn_peer[960] 	lookupHopsSig:mean 	-nan
scalar Network.dyn_peer[961] 	lookupTimeSig:mean 	-nan
scalar Network.dyn_peer[961] 	lookupStabilitySig:mean 	-nan
scalar Network.dyn_peer[961] 	lookupHopsSig:mean 	-nan
scalar Network.dyn_peer[962] 	lookupTimeSig:mean 	-nan
scalar Network.dyn_peer[962] 	lookupStabilitySig:mean 	-nan
scalar Network.dyn_peer[962] 	lookupHopsSig:mean 	-nan
scalar Network.dyn_peer[963] 	lookupTimeSig:mean 	-nan
scalar Network.dyn_peer[963] 	lookupStabilitySig:mean 	-nan
scalar Network.dyn_peer[963] 	lookupHopsSig:mean 	-nan
scalar Network.dyn_peer[964] 	lookupTimeSig:mean 	-nan
scalar Network.dyn_peer[964] 	lookupStabilitySig:mean 	-nan
scalar Network.dyn_peer[964] 	lookupHopsSig:mean 	-nan
scalar Network.dyn_peer[965] 	lookupTimeSig:mean 	-nan
scalar Network.dyn_peer[965] 	lookupStabilitySig:mean 	-nan
scalar Network.dyn_peer[965] 	lookupHopsSig:mean 	-nan
scalar Network.dyn_peer[966] 	lookupTimeSig:mean 	-nan
scalar Network.dyn_peer[966] 	lookupStabilitySig:mean 	-nan
scalar Network.dyn_peer[966] 	lookupHopsSig:mean 	-nan
scalar Network.dyn_peer[967] 	lookupTimeSig:mean 	-nan
scalar Network.dyn_peer[967] 	lookupStabilitySig:mean 	-nan
scalar Network.dyn_peer[967] 	lookupHopsSig:mean 	-nan
scalar Network.dyn_peer[968] 	lookupTimeSig:mean 	-nan
scalar Network.dyn_peer[968] 	lookupStabilitySig:mean 	-nan
scalar Network.dyn_peer[968] 	lookupHopsSig:mean 	-nan
scalar Network.dyn_peer[969] 	lookupTimeSig:mean 	-nan
scalar Network.dyn_peer[969] 	lookupStabilitySig:mean 	-nan
scalar Network.dyn_peer[969] 	lookupHopsSig:mean 	-nan
scalar Network.dyn_peer[970] 	lookupTimeSig:mean 	-nan
scalar Network.dyn_peer[970] 	lookupStabilitySig:mean 	-nan
scalar Network.dyn_peer[970] 	lookupHopsSig:mean 	-nan
scalar Network.dyn_peer[971] 	lookupTimeSig:mean 	-nan
scalar Network.dyn_peer[971] 	lookupStabilitySig:mean 	-nan
scalar Network.dyn_peer[971] 	lookupHopsSig:mean 	-nan
scalar Network.dyn_peer[972] 	lookupTimeSig:mean 	-nan
scalar Network.dyn_peer[972] 	lookupStabilitySig:mean 	-nan
scalar Network.dyn_peer[972] 	lookupHopsSig:mean 	-nan
scalar Network.dyn_peer[973] 	lookupTimeSig:mean 	-nan
scalar Network.dyn_peer[973] 	lookupStabilitySig:mean 	-nan
scalar Network.dyn_peer[973] 	lookupHopsSig:mean 	-nan
scalar Network.dyn_peer[974] 	lookupTimeSig:mean 	-nan
scalar Network.dyn_peer[974] 	lookupStabilitySig:mean 	-nan
scalar Network.dyn_peer[974] 	lookupHopsSig:mean 	-nan
scalar Network.dyn_peer[975] 	lookupTimeSig:mean 	-nan
scalar Network.dyn_peer[975] 	lookupStabilitySig:mean 	-nan
scalar Network.dyn_peer[975] 	lookupHopsSig:mean 	-nan
scalar Network.dyn_peer[976] 	lookupTimeSig:mean 	-nan
scalar Network.dyn_peer[976] 	lookupStabilitySig:mean 	-nan
scalar Network.dyn_peer[976] 	lookupHopsSig:mean 	-nan
scalar Network.dyn_peer[977] 	lookupTimeSig:mean 	-nan
scalar Network.dyn_peer[977] 	lookupStabilitySig:mean 	-nan
scalar Network.dyn_peer[977] 	lookupHopsSig:mean 	-nan
scalar Network.dyn_peer[978] 	lookupTimeSig:mean 	-nan
scalar Network.dyn_peer[978] 	lookupStabilitySig:mean 	-nan
scalar Network.dyn_peer[978] 	lookupHopsSig:mean 	-nan
scalar Network.dyn_peer[979] 	lookupTimeSig:mean 	-nan
scalar Network.dyn_peer[979] 	lookupStabilitySig:mean 	-nan
scalar Network.dyn_peer[979] 	lookupHopsSig:mean 	-nan
scalar Network.dyn_peer[980] 	lookupTimeSig:mean 	-nan
scalar Network.dyn_peer[980] 	lookupStabilitySig:mean 	-nan
scalar Network.dyn_peer[980] 	lookupHopsSig:mean 	-nan
scalar Network.dyn_peer[981] 	lookupTimeSig:mean 	-nan
scalar Network.dyn_peer[981] 	lookupStabilitySig:mean 	-nan
scalar Network.dyn_peer[981] 	lookupHopsSig:mean 	-nan
scalar Network.dyn_peer[982] 	lookupTimeSig:mean 	-nan
scalar Network.dyn_peer[982] 	lookupStabilitySig:mean 	-nan
scalar Network.dyn_peer[982] 	lookupHopsSig:mean 	-nan
scalar Network.dyn_peer[983] 	lookupTimeSig:mean 	-nan
scalar Network.dyn_peer[983] 	lookupStabilitySig:mean 	-nan
scalar Network.dyn_peer[983] 	lookupHopsSig:mean 	-nan
scalar Network.dyn_peer[984] 	lookupTimeSig:mean 	-nan
scalar Network.dyn_peer[984] 	lookupStabilitySig:mean 	-nan
scalar Network.dyn_peer[984] 	lookupHopsSig:mean 	-nan
scalar Network.dyn_peer[985] 	lookupTimeSig:mean 	-nan
scalar Network.dyn_peer[985] 	lookupStabilitySig:mean 	-nan
scalar Network.dyn_peer[985] 	lookupHopsSig:mean 	-nan
scalar Network.dyn_peer[986] 	lookupTimeSig:mean 	-nan
scalar Network.dyn_peer[986] 	lookupStabilitySig:mean 	-nan
scalar Network.dyn_peer[986] 	lookupHopsSig:mean 	-nan
scalar Network.dyn_peer[987] 	lookupTimeSig:mean 	-nan
scalar Network.dyn_peer[987] 	lookupStabilitySig:mean 	-nan
scalar Network.dyn_peer[987] 	lookupHopsSig:mean 	-nan
scalar Network.dyn_peer[988] 	lookupTimeSig:mean 	-nan
scalar Network.dyn_peer[988] 	lookupStabilitySig:mean 	-nan
scalar Network.dyn_peer[988] 	lookupHopsSig:mean 	-nan
scalar Network.dyn_peer[989] 	lookupTimeSig:mean 	-nan
scalar Network.dyn_peer[989] 	lookupStabilitySig:mean 	-nan
scalar Network.dyn_peer[989] 	lookupHopsSig:mean 	-nan
scalar Network.dyn_peer[990] 	lookupTimeSig:mean 	-nan
scalar Network.dyn_peer[990] 	lookupStabilitySig:mean 	-nan
scalar Network.dyn_peer[990] 	lookupHopsSig:mean 	-nan
scalar Network.dyn_peer[991] 	lookupTimeSig:mean 	-nan
scalar Network.dyn_peer[991] 	lookupStabilitySig:mean 	-nan
scalar Network.dyn_peer[991] 	lookupHopsSig:mean 	-nan
scalar Network.dyn_peer[992] 	lookupTimeSig:mean 	-nan
scalar Network.dyn_peer[992] 	lookupStabilitySig:mean 	-nan
scalar Network.dyn_peer[992] 	lookupHopsSig:mean 	-nan
scalar Network.dyn_peer[993] 	lookupTimeSig:mean 	-nan
scalar Network.dyn_peer[993] 	lookupStabilitySig:mean 	-nan
scalar Network.dyn_peer[993] 	lookupHopsSig:mean 	-nan
scalar Network.dyn_peer[994] 	lookupTimeSig:mean 	-nan
scalar Network.dyn_peer[994] 	lookupStabilitySig:mean 	-nan
scalar Network.dyn_peer[994] 	lookupHopsSig:mean 	-nan
scalar Network.dyn_peer[995] 	lookupTimeSig:mean 	-nan
scalar Network.dyn_peer[995] 	lookupStabilitySig:mean 	-nan
scalar Network.dyn_peer[995] 	lookupHopsSig:mean 	-nan
scalar Network.dyn_peer[996] 	lookupTimeSig:mean 	-nan
scalar Network.dyn_peer[996] 	lookupStabilitySig:mean 	-nan
scalar Network.dyn_peer[996] 	lookupHopsSig:mean 	-nan
scalar Network.dyn_peer[997] 	lookupTimeSig:mean 	-nan
scalar Network.dyn_peer[997] 	lookupStabilitySig:mean 	-nan
scalar Network.dyn_peer[997] 	lookupHopsSig:mean 	-nan
scalar Network.dyn_peer[998] 	lookupTimeSig:mean 	-nan
scalar Network.dyn_peer[998] 	lookupStabilitySig:mean 	-nan
scalar Network.dyn_peer[998] 	lookupHopsSig:mean 	-nan
scalar Network.dyn_peer[999] 	lookupTimeSig:mean 	-nan
scalar Network.dyn_peer[999] 	lookupStabilitySig:mean 	-nan
scalar Network.dyn_peer[999] 	lookupHopsSig:mean 	-nan
scalar Network.churner 	inGoingSizeSig:mean 	199.00249376559
