version 2
run Stability2-325-20130526-00:55:33-26640
attr configname Stability2
attr datetime 20130526-00:55:33
attr experiment Stability2
attr inifile omnetpp.ini
attr iterationvars $0=1000
attr iterationvars2 "$0=1000, $repetition=25"
attr measurement $0=1000
attr network Network
attr processid 26640
attr repetition 25
attr replication #25
attr resultdir results
attr runnumber 325
attr seedset 325

scalar Network.dyn_peer[0] 	lookupTimeSig:mean 	2.375
scalar Network.dyn_peer[0] 	lookupStabilitySig:mean 	0.68616284243762
scalar Network.dyn_peer[0] 	lookupHopsSig:mean 	23
scalar Network.dyn_peer[1] 	lookupTimeSig:mean 	1.18
scalar Network.dyn_peer[1] 	lookupStabilitySig:mean 	0.52784114088863
scalar Network.dyn_peer[1] 	lookupHopsSig:mean 	11
scalar Network.dyn_peer[2] 	lookupTimeSig:mean 	1.625
scalar Network.dyn_peer[2] 	lookupStabilitySig:mean 	0.35386177524924
scalar Network.dyn_peer[2] 	lookupHopsSig:mean 	15.5
scalar Network.dyn_peer[3] 	lookupTimeSig:mean 	1.69
scalar Network.dyn_peer[3] 	lookupStabilitySig:mean 	0.74836406279355
scalar Network.dyn_peer[3] 	lookupHopsSig:mean 	16
scalar Network.dyn_peer[4] 	lookupTimeSig:mean 	0.95
scalar Network.dyn_peer[4] 	lookupStabilitySig:mean 	0.35432692244649
scalar Network.dyn_peer[4] 	lookupHopsSig:mean 	8.75
scalar Network.dyn_peer[5] 	lookupTimeSig:mean 	1.825
scalar Network.dyn_peer[5] 	lookupStabilitySig:mean 	0.47518007829785
scalar Network.dyn_peer[5] 	lookupHopsSig:mean 	17.5
scalar Network.dyn_peer[6] 	lookupTimeSig:mean 	1.25
scalar Network.dyn_peer[6] 	lookupStabilitySig:mean 	0.77115021971986
scalar Network.dyn_peer[6] 	lookupHopsSig:mean 	11.75
scalar Network.dyn_peer[7] 	lookupTimeSig:mean 	2.65
scalar Network.dyn_peer[7] 	lookupStabilitySig:mean 	0.40645161271095
scalar Network.dyn_peer[7] 	lookupHopsSig:mean 	26
scalar Network.dyn_peer[8] 	lookupTimeSig:mean 	2.7
scalar Network.dyn_peer[8] 	lookupStabilitySig:mean 	0.47798464819789
scalar Network.dyn_peer[8] 	lookupHopsSig:mean 	26.25
scalar Network.dyn_peer[9] 	lookupTimeSig:mean 	2.0111111111111
scalar Network.dyn_peer[9] 	lookupStabilitySig:mean 	0.73663296912693
scalar Network.dyn_peer[9] 	lookupHopsSig:mean 	19.222222222222
scalar Network.dyn_peer[10] 	lookupTimeSig:mean 	3.9
scalar Network.dyn_peer[10] 	lookupStabilitySig:mean 	0.76009588936965
scalar Network.dyn_peer[10] 	lookupHopsSig:mean 	38.333333333333
scalar Network.dyn_peer[11] 	lookupTimeSig:mean 	1.74
scalar Network.dyn_peer[11] 	lookupStabilitySig:mean 	0.54403115212917
scalar Network.dyn_peer[11] 	lookupHopsSig:mean 	16.6
scalar Network.dyn_peer[12] 	lookupTimeSig:mean 	1.72
scalar Network.dyn_peer[12] 	lookupStabilitySig:mean 	0.53622832372785
scalar Network.dyn_peer[12] 	lookupHopsSig:mean 	16.4
scalar Network.dyn_peer[13] 	lookupTimeSig:mean 	1.54
scalar Network.dyn_peer[13] 	lookupStabilitySig:mean 	0.51605502218008
scalar Network.dyn_peer[13] 	lookupHopsSig:mean 	14.6
scalar Network.dyn_peer[14] 	lookupTimeSig:mean 	1.38
scalar Network.dyn_peer[14] 	lookupStabilitySig:mean 	0.51077927872539
scalar Network.dyn_peer[14] 	lookupHopsSig:mean 	13
scalar Network.dyn_peer[15] 	lookupTimeSig:mean 	1.7
scalar Network.dyn_peer[15] 	lookupStabilitySig:mean 	0.44705629069358
scalar Network.dyn_peer[15] 	lookupHopsSig:mean 	16.25
scalar Network.dyn_peer[16] 	lookupTimeSig:mean 	2.0857142857143
scalar Network.dyn_peer[16] 	lookupStabilitySig:mean 	0.9225487110338
scalar Network.dyn_peer[16] 	lookupHopsSig:mean 	20
scalar Network.dyn_peer[17] 	lookupTimeSig:mean 	1.5333333333333
scalar Network.dyn_peer[17] 	lookupStabilitySig:mean 	0.66452990969022
scalar Network.dyn_peer[17] 	lookupHopsSig:mean 	14.5
scalar Network.dyn_peer[18] 	lookupTimeSig:mean 	4.25
scalar Network.dyn_peer[18] 	lookupStabilitySig:mean 	-0.032280221581459
scalar Network.dyn_peer[18] 	lookupHopsSig:mean 	42
scalar Network.dyn_peer[19] 	lookupTimeSig:mean 	2.1142857142857
scalar Network.dyn_peer[19] 	lookupStabilitySig:mean 	0.72907208944006
scalar Network.dyn_peer[19] 	lookupHopsSig:mean 	20.285714285714
scalar Network.dyn_peer[20] 	lookupTimeSig:mean 	2.525
scalar Network.dyn_peer[20] 	lookupStabilitySig:mean 	0.80204400233924
scalar Network.dyn_peer[20] 	lookupHopsSig:mean 	24.5
scalar Network.dyn_peer[21] 	lookupTimeSig:mean 	1.5
scalar Network.dyn_peer[21] 	lookupStabilitySig:mean 	0.82143041152846
scalar Network.dyn_peer[21] 	lookupHopsSig:mean 	14.090909090909
scalar Network.dyn_peer[22] 	lookupTimeSig:mean 	1.4
scalar Network.dyn_peer[22] 	lookupStabilitySig:mean 	-0.3125
scalar Network.dyn_peer[22] 	lookupHopsSig:mean 	13.5
scalar Network.dyn_peer[23] 	lookupTimeSig:mean 	1.975
scalar Network.dyn_peer[23] 	lookupStabilitySig:mean 	0.61796944215894
scalar Network.dyn_peer[23] 	lookupHopsSig:mean 	19
scalar Network.dyn_peer[24] 	lookupTimeSig:mean 	0.975
scalar Network.dyn_peer[24] 	lookupStabilitySig:mean 	0.45089255645871
scalar Network.dyn_peer[24] 	lookupHopsSig:mean 	9
scalar Network.dyn_peer[25] 	lookupTimeSig:mean 	3.0666666666667
scalar Network.dyn_peer[25] 	lookupStabilitySig:mean 	0.66358474890391
scalar Network.dyn_peer[25] 	lookupHopsSig:mean 	30
scalar Network.dyn_peer[26] 	lookupTimeSig:mean 	1.66
scalar Network.dyn_peer[26] 	lookupStabilitySig:mean 	0.65536439009011
scalar Network.dyn_peer[26] 	lookupHopsSig:mean 	15.8
scalar Network.dyn_peer[27] 	lookupTimeSig:mean 	4.75
scalar Network.dyn_peer[27] 	lookupStabilitySig:mean 	-0.035421401262283
scalar Network.dyn_peer[27] 	lookupHopsSig:mean 	47
scalar Network.dyn_peer[28] 	lookupTimeSig:mean 	2.3
scalar Network.dyn_peer[28] 	lookupStabilitySig:mean 	0.54381221681833
scalar Network.dyn_peer[28] 	lookupHopsSig:mean 	22.2
scalar Network.dyn_peer[29] 	lookupTimeSig:mean 	1.525
scalar Network.dyn_peer[29] 	lookupStabilitySig:mean 	0.62656654790044
scalar Network.dyn_peer[29] 	lookupHopsSig:mean 	14.5
scalar Network.dyn_peer[30] 	lookupTimeSig:mean 	1.6166666666667
scalar Network.dyn_peer[30] 	lookupStabilitySig:mean 	0.5425901664421
scalar Network.dyn_peer[30] 	lookupHopsSig:mean 	15.333333333333
scalar Network.dyn_peer[31] 	lookupTimeSig:mean 	1.6
scalar Network.dyn_peer[31] 	lookupStabilitySig:mean 	0.18148148059845
scalar Network.dyn_peer[31] 	lookupHopsSig:mean 	15.5
scalar Network.dyn_peer[32] 	lookupTimeSig:mean 	7.05
scalar Network.dyn_peer[32] 	lookupStabilitySig:mean 	0.40890688449144
scalar Network.dyn_peer[32] 	lookupHopsSig:mean 	70
scalar Network.dyn_peer[33] 	lookupTimeSig:mean 	2.75
scalar Network.dyn_peer[33] 	lookupStabilitySig:mean 	0.29062185995281
scalar Network.dyn_peer[33] 	lookupHopsSig:mean 	26.75
scalar Network.dyn_peer[34] 	lookupTimeSig:mean 	1.4833333333333
scalar Network.dyn_peer[34] 	lookupStabilitySig:mean 	0.74110101458306
scalar Network.dyn_peer[34] 	lookupHopsSig:mean 	14
scalar Network.dyn_peer[35] 	lookupTimeSig:mean 	1.6909090909091
scalar Network.dyn_peer[35] 	lookupStabilitySig:mean 	0.78419402195141
scalar Network.dyn_peer[35] 	lookupHopsSig:mean 	16
scalar Network.dyn_peer[36] 	lookupTimeSig:mean 	1.75
scalar Network.dyn_peer[36] 	lookupStabilitySig:mean 	0.65435770355786
scalar Network.dyn_peer[36] 	lookupHopsSig:mean 	16.666666666667
scalar Network.dyn_peer[37] 	lookupTimeSig:mean 	2.15
scalar Network.dyn_peer[37] 	lookupStabilitySig:mean 	0.88101494126022
scalar Network.dyn_peer[37] 	lookupHopsSig:mean 	20.75
scalar Network.dyn_peer[38] 	lookupTimeSig:mean 	2.2
scalar Network.dyn_peer[38] 	lookupStabilitySig:mean 	0.31970254890621
scalar Network.dyn_peer[38] 	lookupHopsSig:mean 	21.25
scalar Network.dyn_peer[39] 	lookupTimeSig:mean 	1.1666666666667
scalar Network.dyn_peer[39] 	lookupStabilitySig:mean 	0.17804876963298
scalar Network.dyn_peer[39] 	lookupHopsSig:mean 	11
scalar Network.dyn_peer[40] 	lookupTimeSig:mean 	1.4714285714286
scalar Network.dyn_peer[40] 	lookupStabilitySig:mean 	0.71609864144453
scalar Network.dyn_peer[40] 	lookupHopsSig:mean 	13.857142857143
scalar Network.dyn_peer[41] 	lookupTimeSig:mean 	2.45
scalar Network.dyn_peer[41] 	lookupStabilitySig:mean 	0.68660826422274
scalar Network.dyn_peer[41] 	lookupHopsSig:mean 	23.75
scalar Network.dyn_peer[42] 	lookupTimeSig:mean 	1.4571428571429
scalar Network.dyn_peer[42] 	lookupStabilitySig:mean 	0.66368341073394
scalar Network.dyn_peer[42] 	lookupHopsSig:mean 	13.714285714286
scalar Network.dyn_peer[43] 	lookupTimeSig:mean 	3.3
scalar Network.dyn_peer[43] 	lookupStabilitySig:mean 	0.43925801912944
scalar Network.dyn_peer[43] 	lookupHopsSig:mean 	32.333333333333
scalar Network.dyn_peer[44] 	lookupTimeSig:mean 	1.72
scalar Network.dyn_peer[44] 	lookupStabilitySig:mean 	0.47838033363223
scalar Network.dyn_peer[44] 	lookupHopsSig:mean 	16.4
scalar Network.dyn_peer[45] 	lookupTimeSig:mean 	1.875
scalar Network.dyn_peer[45] 	lookupStabilitySig:mean 	0.24734237790108
scalar Network.dyn_peer[45] 	lookupHopsSig:mean 	18
scalar Network.dyn_peer[46] 	lookupTimeSig:mean 	1
scalar Network.dyn_peer[46] 	lookupStabilitySig:mean 	0.50400246679783
scalar Network.dyn_peer[46] 	lookupHopsSig:mean 	9.25
scalar Network.dyn_peer[47] 	lookupTimeSig:mean 	2.325
scalar Network.dyn_peer[47] 	lookupStabilitySig:mean 	0.71436178963631
scalar Network.dyn_peer[47] 	lookupHopsSig:mean 	22.375
scalar Network.dyn_peer[48] 	lookupTimeSig:mean 	2.2
scalar Network.dyn_peer[48] 	lookupStabilitySig:mean 	0.58073360286653
scalar Network.dyn_peer[48] 	lookupHopsSig:mean 	21.25
scalar Network.dyn_peer[49] 	lookupTimeSig:mean 	1.175
scalar Network.dyn_peer[49] 	lookupStabilitySig:mean 	0.30316503718495
scalar Network.dyn_peer[49] 	lookupHopsSig:mean 	11
scalar Network.dyn_peer[50] 	lookupTimeSig:mean 	1.6333333333333
scalar Network.dyn_peer[50] 	lookupStabilitySig:mean 	0.79974076741685
scalar Network.dyn_peer[50] 	lookupHopsSig:mean 	15.5
scalar Network.dyn_peer[51] 	lookupTimeSig:mean 	1.4
scalar Network.dyn_peer[51] 	lookupStabilitySig:mean 	0.47212918754667
scalar Network.dyn_peer[51] 	lookupHopsSig:mean 	13.25
scalar Network.dyn_peer[52] 	lookupTimeSig:mean 	2.3
scalar Network.dyn_peer[52] 	lookupStabilitySig:mean 	0.62616960331798
scalar Network.dyn_peer[52] 	lookupHopsSig:mean 	22.25
scalar Network.dyn_peer[53] 	lookupTimeSig:mean 	1.48
scalar Network.dyn_peer[53] 	lookupStabilitySig:mean 	0.45443917959929
scalar Network.dyn_peer[53] 	lookupHopsSig:mean 	14
scalar Network.dyn_peer[54] 	lookupTimeSig:mean 	1.58
scalar Network.dyn_peer[54] 	lookupStabilitySig:mean 	0.49727701377124
scalar Network.dyn_peer[54] 	lookupHopsSig:mean 	15
scalar Network.dyn_peer[55] 	lookupTimeSig:mean 	3.2666666666667
scalar Network.dyn_peer[55] 	lookupStabilitySig:mean 	0.55753327409426
scalar Network.dyn_peer[55] 	lookupHopsSig:mean 	32
scalar Network.dyn_peer[56] 	lookupTimeSig:mean 	2.025
scalar Network.dyn_peer[56] 	lookupStabilitySig:mean 	0.54906900320202
scalar Network.dyn_peer[56] 	lookupHopsSig:mean 	19.5
scalar Network.dyn_peer[57] 	lookupTimeSig:mean 	1.925
scalar Network.dyn_peer[57] 	lookupStabilitySig:mean 	0.36901162099093
scalar Network.dyn_peer[57] 	lookupHopsSig:mean 	18.5
scalar Network.dyn_peer[58] 	lookupTimeSig:mean 	1.725
scalar Network.dyn_peer[58] 	lookupStabilitySig:mean 	0.6406660284847
scalar Network.dyn_peer[58] 	lookupHopsSig:mean 	16.5
scalar Network.dyn_peer[59] 	lookupTimeSig:mean 	2.3
scalar Network.dyn_peer[59] 	lookupStabilitySig:mean 	0.59185099452734
scalar Network.dyn_peer[59] 	lookupHopsSig:mean 	22.2
scalar Network.dyn_peer[60] 	lookupTimeSig:mean 	2.2333333333333
scalar Network.dyn_peer[60] 	lookupStabilitySig:mean 	0.69994608312845
scalar Network.dyn_peer[60] 	lookupHopsSig:mean 	21.666666666667
scalar Network.dyn_peer[61] 	lookupTimeSig:mean 	2.225
scalar Network.dyn_peer[61] 	lookupStabilitySig:mean 	0.39944619685411
scalar Network.dyn_peer[61] 	lookupHopsSig:mean 	21.5
scalar Network.dyn_peer[62] 	lookupTimeSig:mean 	1.4
scalar Network.dyn_peer[62] 	lookupStabilitySig:mean 	0.30930202826858
scalar Network.dyn_peer[62] 	lookupHopsSig:mean 	13.25
scalar Network.dyn_peer[63] 	lookupTimeSig:mean 	2.32
scalar Network.dyn_peer[63] 	lookupStabilitySig:mean 	0.82840253859758
scalar Network.dyn_peer[63] 	lookupHopsSig:mean 	22.4
scalar Network.dyn_peer[64] 	lookupTimeSig:mean 	1.825
scalar Network.dyn_peer[64] 	lookupStabilitySig:mean 	0.28209723159671
scalar Network.dyn_peer[64] 	lookupHopsSig:mean 	17.5
scalar Network.dyn_peer[65] 	lookupTimeSig:mean 	1.725
scalar Network.dyn_peer[65] 	lookupStabilitySig:mean 	0.7259835038567
scalar Network.dyn_peer[65] 	lookupHopsSig:mean 	16.375
scalar Network.dyn_peer[66] 	lookupTimeSig:mean 	1.7333333333333
scalar Network.dyn_peer[66] 	lookupStabilitySig:mean 	0.71117428969592
scalar Network.dyn_peer[66] 	lookupHopsSig:mean 	16.5
scalar Network.dyn_peer[67] 	lookupTimeSig:mean 	3.9666666666667
scalar Network.dyn_peer[67] 	lookupStabilitySig:mean 	0.51996712634961
scalar Network.dyn_peer[67] 	lookupHopsSig:mean 	39
scalar Network.dyn_peer[68] 	lookupTimeSig:mean 	3.6666666666667
scalar Network.dyn_peer[68] 	lookupStabilitySig:mean 	0.48853596051534
scalar Network.dyn_peer[68] 	lookupHopsSig:mean 	36
scalar Network.dyn_peer[69] 	lookupTimeSig:mean 	1.65
scalar Network.dyn_peer[69] 	lookupStabilitySig:mean 	0.66909036089783
scalar Network.dyn_peer[69] 	lookupHopsSig:mean 	15.625
scalar Network.dyn_peer[70] 	lookupTimeSig:mean 	2.025
scalar Network.dyn_peer[70] 	lookupStabilitySig:mean 	0.4395370464772
scalar Network.dyn_peer[70] 	lookupHopsSig:mean 	19.5
scalar Network.dyn_peer[71] 	lookupTimeSig:mean 	2.025
scalar Network.dyn_peer[71] 	lookupStabilitySig:mean 	0.45312642306089
scalar Network.dyn_peer[71] 	lookupHopsSig:mean 	19.5
scalar Network.dyn_peer[72] 	lookupTimeSig:mean 	0.71666666666667
scalar Network.dyn_peer[72] 	lookupStabilitySig:mean 	0.6047930616575
scalar Network.dyn_peer[72] 	lookupHopsSig:mean 	6.3333333333333
scalar Network.dyn_peer[73] 	lookupTimeSig:mean 	2.3
scalar Network.dyn_peer[73] 	lookupStabilitySig:mean 	0.51578452950343
scalar Network.dyn_peer[73] 	lookupHopsSig:mean 	22.25
scalar Network.dyn_peer[74] 	lookupTimeSig:mean 	4.2
scalar Network.dyn_peer[74] 	lookupStabilitySig:mean 	0.78579387068748
scalar Network.dyn_peer[74] 	lookupHopsSig:mean 	41.5
scalar Network.dyn_peer[75] 	lookupTimeSig:mean 	1.4714285714286
scalar Network.dyn_peer[75] 	lookupStabilitySig:mean 	0.77064625360072
scalar Network.dyn_peer[75] 	lookupHopsSig:mean 	13.857142857143
scalar Network.dyn_peer[76] 	lookupTimeSig:mean 	2.2
scalar Network.dyn_peer[76] 	lookupStabilitySig:mean 	0.75796480709687
scalar Network.dyn_peer[76] 	lookupHopsSig:mean 	21.142857142857
scalar Network.dyn_peer[77] 	lookupTimeSig:mean 	1.6
scalar Network.dyn_peer[77] 	lookupStabilitySig:mean 	0.7215707708383
scalar Network.dyn_peer[77] 	lookupHopsSig:mean 	15.125
scalar Network.dyn_peer[78] 	lookupTimeSig:mean 	1.7714285714286
scalar Network.dyn_peer[78] 	lookupStabilitySig:mean 	0.60754398389586
scalar Network.dyn_peer[78] 	lookupHopsSig:mean 	16.857142857143
scalar Network.dyn_peer[79] 	lookupTimeSig:mean 	1.9888888888889
scalar Network.dyn_peer[79] 	lookupStabilitySig:mean 	0.87949412779158
scalar Network.dyn_peer[79] 	lookupHopsSig:mean 	19
scalar Network.dyn_peer[80] 	lookupTimeSig:mean 	2.025
scalar Network.dyn_peer[80] 	lookupStabilitySig:mean 	0.73992996045854
scalar Network.dyn_peer[80] 	lookupHopsSig:mean 	19.375
scalar Network.dyn_peer[81] 	lookupTimeSig:mean 	2.1
scalar Network.dyn_peer[81] 	lookupStabilitySig:mean 	0.65697529865429
scalar Network.dyn_peer[81] 	lookupHopsSig:mean 	20.125
scalar Network.dyn_peer[82] 	lookupTimeSig:mean 	2.08
scalar Network.dyn_peer[82] 	lookupStabilitySig:mean 	0.63624895736575
scalar Network.dyn_peer[82] 	lookupHopsSig:mean 	20
scalar Network.dyn_peer[83] 	lookupTimeSig:mean 	1
scalar Network.dyn_peer[83] 	lookupStabilitySig:mean 	0.29761902987957
scalar Network.dyn_peer[83] 	lookupHopsSig:mean 	9.3333333333333
scalar Network.dyn_peer[84] 	lookupTimeSig:mean 	1.7666666666667
scalar Network.dyn_peer[84] 	lookupStabilitySig:mean 	0.52758529782295
scalar Network.dyn_peer[84] 	lookupHopsSig:mean 	17
scalar Network.dyn_peer[85] 	lookupTimeSig:mean 	2.01
scalar Network.dyn_peer[85] 	lookupStabilitySig:mean 	0.83960812604055
scalar Network.dyn_peer[85] 	lookupHopsSig:mean 	19.2
scalar Network.dyn_peer[86] 	lookupTimeSig:mean 	1.4
scalar Network.dyn_peer[86] 	lookupStabilitySig:mean 	0.67330356035382
scalar Network.dyn_peer[86] 	lookupHopsSig:mean 	13.166666666667
scalar Network.dyn_peer[87] 	lookupTimeSig:mean 	1.5714285714286
scalar Network.dyn_peer[87] 	lookupStabilitySig:mean 	0.65929267821567
scalar Network.dyn_peer[87] 	lookupHopsSig:mean 	14.857142857143
scalar Network.dyn_peer[88] 	lookupTimeSig:mean 	1.7
scalar Network.dyn_peer[88] 	lookupStabilitySig:mean 	0.69003325030208
scalar Network.dyn_peer[88] 	lookupHopsSig:mean 	16.2
scalar Network.dyn_peer[89] 	lookupTimeSig:mean 	1.3444444444444
scalar Network.dyn_peer[89] 	lookupStabilitySig:mean 	0.66133126802742
scalar Network.dyn_peer[89] 	lookupHopsSig:mean 	12.555555555556
scalar Network.dyn_peer[90] 	lookupTimeSig:mean 	2.575
scalar Network.dyn_peer[90] 	lookupStabilitySig:mean 	0.38107050582767
scalar Network.dyn_peer[90] 	lookupHopsSig:mean 	25
scalar Network.dyn_peer[91] 	lookupTimeSig:mean 	2.375
scalar Network.dyn_peer[91] 	lookupStabilitySig:mean 	0.49438026268035
scalar Network.dyn_peer[91] 	lookupHopsSig:mean 	23
scalar Network.dyn_peer[92] 	lookupTimeSig:mean 	1.5333333333333
scalar Network.dyn_peer[92] 	lookupStabilitySig:mean 	0.26703297595183
scalar Network.dyn_peer[92] 	lookupHopsSig:mean 	14.666666666667
scalar Network.dyn_peer[93] 	lookupTimeSig:mean 	1.7444444444444
scalar Network.dyn_peer[93] 	lookupStabilitySig:mean 	0.95288570318371
scalar Network.dyn_peer[93] 	lookupHopsSig:mean 	16.555555555556
scalar Network.dyn_peer[94] 	lookupTimeSig:mean 	1.8714285714286
scalar Network.dyn_peer[94] 	lookupStabilitySig:mean 	0.650847635498
scalar Network.dyn_peer[94] 	lookupHopsSig:mean 	17.857142857143
scalar Network.dyn_peer[95] 	lookupTimeSig:mean 	2.725
scalar Network.dyn_peer[95] 	lookupStabilitySig:mean 	0.48356266436167
scalar Network.dyn_peer[95] 	lookupHopsSig:mean 	26.5
scalar Network.dyn_peer[96] 	lookupTimeSig:mean 	2.275
scalar Network.dyn_peer[96] 	lookupStabilitySig:mean 	0.68943507969379
scalar Network.dyn_peer[96] 	lookupHopsSig:mean 	22
scalar Network.dyn_peer[97] 	lookupTimeSig:mean 	1.7
scalar Network.dyn_peer[97] 	lookupStabilitySig:mean 	0.39757873117924
scalar Network.dyn_peer[97] 	lookupHopsSig:mean 	16.25
scalar Network.dyn_peer[98] 	lookupTimeSig:mean 	2
scalar Network.dyn_peer[98] 	lookupStabilitySig:mean 	0.677644240936
scalar Network.dyn_peer[98] 	lookupHopsSig:mean 	19.142857142857
scalar Network.dyn_peer[99] 	lookupTimeSig:mean 	1.55
scalar Network.dyn_peer[99] 	lookupStabilitySig:mean 	0.44848318584263
scalar Network.dyn_peer[99] 	lookupHopsSig:mean 	14.75
scalar Network.dyn_peer[100] 	lookupTimeSig:mean 	2.175
scalar Network.dyn_peer[100] 	lookupStabilitySig:mean 	0.39675324782729
scalar Network.dyn_peer[100] 	lookupHopsSig:mean 	21
scalar Network.dyn_peer[101] 	lookupTimeSig:mean 	2.06
scalar Network.dyn_peer[101] 	lookupStabilitySig:mean 	0.45355448536575
scalar Network.dyn_peer[101] 	lookupHopsSig:mean 	19.8
scalar Network.dyn_peer[102] 	lookupTimeSig:mean 	3.7
scalar Network.dyn_peer[102] 	lookupStabilitySig:mean 	0.78161524857084
scalar Network.dyn_peer[102] 	lookupHopsSig:mean 	36.333333333333
scalar Network.dyn_peer[103] 	lookupTimeSig:mean 	1.5
scalar Network.dyn_peer[103] 	lookupStabilitySig:mean 	0.6542120163462
scalar Network.dyn_peer[103] 	lookupHopsSig:mean 	14.142857142857
scalar Network.dyn_peer[104] 	lookupTimeSig:mean 	4.9
scalar Network.dyn_peer[104] 	lookupStabilitySig:mean 	0.65588653087616
scalar Network.dyn_peer[104] 	lookupHopsSig:mean 	48.5
scalar Network.dyn_peer[105] 	lookupTimeSig:mean 	1.7
scalar Network.dyn_peer[105] 	lookupStabilitySig:mean 	0.44906540168449
scalar Network.dyn_peer[105] 	lookupHopsSig:mean 	16.25
scalar Network.dyn_peer[106] 	lookupTimeSig:mean 	1.9833333333333
scalar Network.dyn_peer[106] 	lookupStabilitySig:mean 	0.77844398996482
scalar Network.dyn_peer[106] 	lookupHopsSig:mean 	19
scalar Network.dyn_peer[107] 	lookupTimeSig:mean 	1.5857142857143
scalar Network.dyn_peer[107] 	lookupStabilitySig:mean 	0.89574802387506
scalar Network.dyn_peer[107] 	lookupHopsSig:mean 	15
scalar Network.dyn_peer[108] 	lookupTimeSig:mean 	1.6666666666667
scalar Network.dyn_peer[108] 	lookupStabilitySig:mean 	0.51615028083324
scalar Network.dyn_peer[108] 	lookupHopsSig:mean 	16
scalar Network.dyn_peer[109] 	lookupTimeSig:mean 	1.3777777777778
scalar Network.dyn_peer[109] 	lookupStabilitySig:mean 	0.80743310393559
scalar Network.dyn_peer[109] 	lookupHopsSig:mean 	12.888888888889
scalar Network.dyn_peer[110] 	lookupTimeSig:mean 	2.25
scalar Network.dyn_peer[110] 	lookupStabilitySig:mean 	0.77895221211947
scalar Network.dyn_peer[110] 	lookupHopsSig:mean 	21.6
scalar Network.dyn_peer[111] 	lookupTimeSig:mean 	2.325
scalar Network.dyn_peer[111] 	lookupStabilitySig:mean 	0.53699008002877
scalar Network.dyn_peer[111] 	lookupHopsSig:mean 	22.5
scalar Network.dyn_peer[112] 	lookupTimeSig:mean 	1.66
scalar Network.dyn_peer[112] 	lookupStabilitySig:mean 	0.81850293688476
scalar Network.dyn_peer[112] 	lookupHopsSig:mean 	15.8
scalar Network.dyn_peer[113] 	lookupTimeSig:mean 	1.9666666666667
scalar Network.dyn_peer[113] 	lookupStabilitySig:mean 	0.45081147054831
scalar Network.dyn_peer[113] 	lookupHopsSig:mean 	19
scalar Network.dyn_peer[114] 	lookupTimeSig:mean 	1.7333333333333
scalar Network.dyn_peer[114] 	lookupStabilitySig:mean 	0.58387459736938
scalar Network.dyn_peer[114] 	lookupHopsSig:mean 	16.5
scalar Network.dyn_peer[115] 	lookupTimeSig:mean 	2.08
scalar Network.dyn_peer[115] 	lookupStabilitySig:mean 	0.46505975574255
scalar Network.dyn_peer[115] 	lookupHopsSig:mean 	20
scalar Network.dyn_peer[116] 	lookupTimeSig:mean 	1.4833333333333
scalar Network.dyn_peer[116] 	lookupStabilitySig:mean 	0.81990489146362
scalar Network.dyn_peer[116] 	lookupHopsSig:mean 	13.916666666667
scalar Network.dyn_peer[117] 	lookupTimeSig:mean 	1.3
scalar Network.dyn_peer[117] 	lookupStabilitySig:mean 	0.43599078431726
scalar Network.dyn_peer[117] 	lookupHopsSig:mean 	12.25
scalar Network.dyn_peer[118] 	lookupTimeSig:mean 	2.05
scalar Network.dyn_peer[118] 	lookupStabilitySig:mean 	0.33670812658966
scalar Network.dyn_peer[118] 	lookupHopsSig:mean 	19.75
scalar Network.dyn_peer[119] 	lookupTimeSig:mean 	1.5714285714286
scalar Network.dyn_peer[119] 	lookupStabilitySig:mean 	0.73902078558292
scalar Network.dyn_peer[119] 	lookupHopsSig:mean 	14.857142857143
scalar Network.dyn_peer[120] 	lookupTimeSig:mean 	2.1222222222222
scalar Network.dyn_peer[120] 	lookupStabilitySig:mean 	0.93945517101222
scalar Network.dyn_peer[120] 	lookupHopsSig:mean 	20.333333333333
scalar Network.dyn_peer[121] 	lookupTimeSig:mean 	4.3666666666667
scalar Network.dyn_peer[121] 	lookupStabilitySig:mean 	0.84975526233514
scalar Network.dyn_peer[121] 	lookupHopsSig:mean 	43
scalar Network.dyn_peer[122] 	lookupTimeSig:mean 	1.5642857142857
scalar Network.dyn_peer[122] 	lookupStabilitySig:mean 	0.88053684754829
scalar Network.dyn_peer[122] 	lookupHopsSig:mean 	14.714285714286
scalar Network.dyn_peer[123] 	lookupTimeSig:mean 	2.54
scalar Network.dyn_peer[123] 	lookupStabilitySig:mean 	0.80782620199025
scalar Network.dyn_peer[123] 	lookupHopsSig:mean 	24.6
scalar Network.dyn_peer[124] 	lookupTimeSig:mean 	3.8
scalar Network.dyn_peer[124] 	lookupStabilitySig:mean 	0.74885215982795
scalar Network.dyn_peer[124] 	lookupHopsSig:mean 	37.5
scalar Network.dyn_peer[125] 	lookupTimeSig:mean 	1.6444444444444
scalar Network.dyn_peer[125] 	lookupStabilitySig:mean 	0.76361290820771
scalar Network.dyn_peer[125] 	lookupHopsSig:mean 	15.555555555556
scalar Network.dyn_peer[126] 	lookupTimeSig:mean 	3.9
scalar Network.dyn_peer[126] 	lookupStabilitySig:mean 	0.86211934561531
scalar Network.dyn_peer[126] 	lookupHopsSig:mean 	38.333333333333
scalar Network.dyn_peer[127] 	lookupTimeSig:mean 	1.16
scalar Network.dyn_peer[127] 	lookupStabilitySig:mean 	0.88851231141016
scalar Network.dyn_peer[127] 	lookupHopsSig:mean 	10.7
scalar Network.dyn_peer[128] 	lookupTimeSig:mean 	2.4666666666667
scalar Network.dyn_peer[128] 	lookupStabilitySig:mean 	0.32256355384986
scalar Network.dyn_peer[128] 	lookupHopsSig:mean 	24
scalar Network.dyn_peer[129] 	lookupTimeSig:mean 	1.3
scalar Network.dyn_peer[129] 	lookupStabilitySig:mean 	0.68254685601486
scalar Network.dyn_peer[129] 	lookupHopsSig:mean 	12.142857142857
scalar Network.dyn_peer[130] 	lookupTimeSig:mean 	1.375
scalar Network.dyn_peer[130] 	lookupStabilitySig:mean 	0.48431548569351
scalar Network.dyn_peer[130] 	lookupHopsSig:mean 	13
scalar Network.dyn_peer[131] 	lookupTimeSig:mean 	1.675
scalar Network.dyn_peer[131] 	lookupStabilitySig:mean 	0.86487743887119
scalar Network.dyn_peer[131] 	lookupHopsSig:mean 	15.875
scalar Network.dyn_peer[132] 	lookupTimeSig:mean 	3.4666666666667
scalar Network.dyn_peer[132] 	lookupStabilitySig:mean 	0.19911840309699
scalar Network.dyn_peer[132] 	lookupHopsSig:mean 	34
scalar Network.dyn_peer[133] 	lookupTimeSig:mean 	2.2888888888889
scalar Network.dyn_peer[133] 	lookupStabilitySig:mean 	0.91126903860519
scalar Network.dyn_peer[133] 	lookupHopsSig:mean 	22
scalar Network.dyn_peer[134] 	lookupTimeSig:mean 	1.925
scalar Network.dyn_peer[134] 	lookupStabilitySig:mean 	0.51957652252167
scalar Network.dyn_peer[134] 	lookupHopsSig:mean 	18.5
scalar Network.dyn_peer[135] 	lookupTimeSig:mean 	1.625
scalar Network.dyn_peer[135] 	lookupStabilitySig:mean 	0.54023574013263
scalar Network.dyn_peer[135] 	lookupHopsSig:mean 	15.5
scalar Network.dyn_peer[136] 	lookupTimeSig:mean 	1.3333333333333
scalar Network.dyn_peer[136] 	lookupStabilitySig:mean 	0.30661376068989
scalar Network.dyn_peer[136] 	lookupHopsSig:mean 	12.666666666667
scalar Network.dyn_peer[137] 	lookupTimeSig:mean 	2.25
scalar Network.dyn_peer[137] 	lookupStabilitySig:mean 	0.84811075590551
scalar Network.dyn_peer[137] 	lookupHopsSig:mean 	21.75
scalar Network.dyn_peer[138] 	lookupTimeSig:mean 	1.7
scalar Network.dyn_peer[138] 	lookupStabilitySig:mean 	0.78073266055435
scalar Network.dyn_peer[138] 	lookupHopsSig:mean 	16.166666666667
scalar Network.dyn_peer[139] 	lookupTimeSig:mean 	1.775
scalar Network.dyn_peer[139] 	lookupStabilitySig:mean 	0.84591354464646
scalar Network.dyn_peer[139] 	lookupHopsSig:mean 	16.875
scalar Network.dyn_peer[140] 	lookupTimeSig:mean 	2.15
scalar Network.dyn_peer[140] 	lookupStabilitySig:mean 	0.38839776907116
scalar Network.dyn_peer[140] 	lookupHopsSig:mean 	20.75
scalar Network.dyn_peer[141] 	lookupTimeSig:mean 	2.2
scalar Network.dyn_peer[141] 	lookupStabilitySig:mean 	0.69402091453473
scalar Network.dyn_peer[141] 	lookupHopsSig:mean 	21.333333333333
scalar Network.dyn_peer[142] 	lookupTimeSig:mean 	4.65
scalar Network.dyn_peer[142] 	lookupStabilitySig:mean 	0.31759908795357
scalar Network.dyn_peer[142] 	lookupHopsSig:mean 	46
scalar Network.dyn_peer[143] 	lookupTimeSig:mean 	1.2
scalar Network.dyn_peer[143] 	lookupStabilitySig:mean 	0.37528037279844
scalar Network.dyn_peer[143] 	lookupHopsSig:mean 	11.25
scalar Network.dyn_peer[144] 	lookupTimeSig:mean 	1.2777777777778
scalar Network.dyn_peer[144] 	lookupStabilitySig:mean 	0.87223272987952
scalar Network.dyn_peer[144] 	lookupHopsSig:mean 	11.888888888889
scalar Network.dyn_peer[145] 	lookupTimeSig:mean 	0.875
scalar Network.dyn_peer[145] 	lookupStabilitySig:mean 	0.32583057507873
scalar Network.dyn_peer[145] 	lookupHopsSig:mean 	8
scalar Network.dyn_peer[146] 	lookupTimeSig:mean 	2.2833333333333
scalar Network.dyn_peer[146] 	lookupStabilitySig:mean 	0.55639229738154
scalar Network.dyn_peer[146] 	lookupHopsSig:mean 	22
scalar Network.dyn_peer[147] 	lookupTimeSig:mean 	3.0666666666667
scalar Network.dyn_peer[147] 	lookupStabilitySig:mean 	0.1935931344827
scalar Network.dyn_peer[147] 	lookupHopsSig:mean 	30
scalar Network.dyn_peer[148] 	lookupTimeSig:mean 	2.8
scalar Network.dyn_peer[148] 	lookupStabilitySig:mean 	0.90569632910192
scalar Network.dyn_peer[148] 	lookupHopsSig:mean 	27.2
scalar Network.dyn_peer[149] 	lookupTimeSig:mean 	2.325
scalar Network.dyn_peer[149] 	lookupStabilitySig:mean 	0.55374087952077
scalar Network.dyn_peer[149] 	lookupHopsSig:mean 	22.5
scalar Network.dyn_peer[150] 	lookupTimeSig:mean 	1.7777777777778
scalar Network.dyn_peer[150] 	lookupStabilitySig:mean 	0.72682160855685
scalar Network.dyn_peer[150] 	lookupHopsSig:mean 	16.888888888889
scalar Network.dyn_peer[151] 	lookupTimeSig:mean 	2.7333333333333
scalar Network.dyn_peer[151] 	lookupStabilitySig:mean 	0.30338893085718
scalar Network.dyn_peer[151] 	lookupHopsSig:mean 	26.666666666667
scalar Network.dyn_peer[152] 	lookupTimeSig:mean 	2.025
scalar Network.dyn_peer[152] 	lookupStabilitySig:mean 	0.79157568194205
scalar Network.dyn_peer[152] 	lookupHopsSig:mean 	19.375
scalar Network.dyn_peer[153] 	lookupTimeSig:mean 	2.78
scalar Network.dyn_peer[153] 	lookupStabilitySig:mean 	0.8608287544921
scalar Network.dyn_peer[153] 	lookupHopsSig:mean 	27
scalar Network.dyn_peer[154] 	lookupTimeSig:mean 	1.4142857142857
scalar Network.dyn_peer[154] 	lookupStabilitySig:mean 	0.74719547453736
scalar Network.dyn_peer[154] 	lookupHopsSig:mean 	13.285714285714
scalar Network.dyn_peer[155] 	lookupTimeSig:mean 	1.9363636363636
scalar Network.dyn_peer[155] 	lookupStabilitySig:mean 	0.83248544137248
scalar Network.dyn_peer[155] 	lookupHopsSig:mean 	18.454545454545
scalar Network.dyn_peer[156] 	lookupTimeSig:mean 	1.27
scalar Network.dyn_peer[156] 	lookupStabilitySig:mean 	0.815269713616
scalar Network.dyn_peer[156] 	lookupHopsSig:mean 	11.8
scalar Network.dyn_peer[157] 	lookupTimeSig:mean 	2.2888888888889
scalar Network.dyn_peer[157] 	lookupStabilitySig:mean 	0.90874977249445
scalar Network.dyn_peer[157] 	lookupHopsSig:mean 	22
scalar Network.dyn_peer[158] 	lookupTimeSig:mean 	2.725
scalar Network.dyn_peer[158] 	lookupStabilitySig:mean 	0.80253163888119
scalar Network.dyn_peer[158] 	lookupHopsSig:mean 	26.5
scalar Network.dyn_peer[159] 	lookupTimeSig:mean 	2.3
scalar Network.dyn_peer[159] 	lookupStabilitySig:mean 	0.96807273242157
scalar Network.dyn_peer[159] 	lookupHopsSig:mean 	22.1
scalar Network.dyn_peer[160] 	lookupTimeSig:mean 	1.98
scalar Network.dyn_peer[160] 	lookupStabilitySig:mean 	0.59581040143967
scalar Network.dyn_peer[160] 	lookupHopsSig:mean 	19
scalar Network.dyn_peer[161] 	lookupTimeSig:mean 	1.5857142857143
scalar Network.dyn_peer[161] 	lookupStabilitySig:mean 	0.6027971804142
scalar Network.dyn_peer[161] 	lookupHopsSig:mean 	15
scalar Network.dyn_peer[162] 	lookupTimeSig:mean 	1.8416666666667
scalar Network.dyn_peer[162] 	lookupStabilitySig:mean 	0.92335324555946
scalar Network.dyn_peer[162] 	lookupHopsSig:mean 	17.5
scalar Network.dyn_peer[163] 	lookupTimeSig:mean 	1.7375
scalar Network.dyn_peer[163] 	lookupStabilitySig:mean 	0.82466472598026
scalar Network.dyn_peer[163] 	lookupHopsSig:mean 	16.5
scalar Network.dyn_peer[164] 	lookupTimeSig:mean 	2.1
scalar Network.dyn_peer[164] 	lookupStabilitySig:mean 	0.92525850690436
scalar Network.dyn_peer[164] 	lookupHopsSig:mean 	20.125
scalar Network.dyn_peer[165] 	lookupTimeSig:mean 	1.54
scalar Network.dyn_peer[165] 	lookupStabilitySig:mean 	0.70601289533079
scalar Network.dyn_peer[165] 	lookupHopsSig:mean 	14.6
scalar Network.dyn_peer[166] 	lookupTimeSig:mean 	2.2833333333333
scalar Network.dyn_peer[166] 	lookupStabilitySig:mean 	0.88193205751789
scalar Network.dyn_peer[166] 	lookupHopsSig:mean 	22
scalar Network.dyn_peer[167] 	lookupTimeSig:mean 	1.9
scalar Network.dyn_peer[167] 	lookupStabilitySig:mean 	0.52654768154025
scalar Network.dyn_peer[167] 	lookupHopsSig:mean 	18.25
scalar Network.dyn_peer[168] 	lookupTimeSig:mean 	1.58
scalar Network.dyn_peer[168] 	lookupStabilitySig:mean 	0.78413185365498
scalar Network.dyn_peer[168] 	lookupHopsSig:mean 	14.9
scalar Network.dyn_peer[169] 	lookupTimeSig:mean 	1.77
scalar Network.dyn_peer[169] 	lookupStabilitySig:mean 	0.76265813321806
scalar Network.dyn_peer[169] 	lookupHopsSig:mean 	16.8
scalar Network.dyn_peer[170] 	lookupTimeSig:mean 	2.4166666666667
scalar Network.dyn_peer[170] 	lookupStabilitySig:mean 	0.93530259250353
scalar Network.dyn_peer[170] 	lookupHopsSig:mean 	23.333333333333
scalar Network.dyn_peer[171] 	lookupTimeSig:mean 	1.925
scalar Network.dyn_peer[171] 	lookupStabilitySig:mean 	0.31299947574735
scalar Network.dyn_peer[171] 	lookupHopsSig:mean 	18.5
scalar Network.dyn_peer[172] 	lookupTimeSig:mean 	2
scalar Network.dyn_peer[172] 	lookupStabilitySig:mean 	0.63462023556765
scalar Network.dyn_peer[172] 	lookupHopsSig:mean 	19.142857142857
scalar Network.dyn_peer[173] 	lookupTimeSig:mean 	1.95
scalar Network.dyn_peer[173] 	lookupStabilitySig:mean 	0.77643543761224
scalar Network.dyn_peer[173] 	lookupHopsSig:mean 	18.75
scalar Network.dyn_peer[174] 	lookupTimeSig:mean 	2.16
scalar Network.dyn_peer[174] 	lookupStabilitySig:mean 	0.69449948221445
scalar Network.dyn_peer[174] 	lookupHopsSig:mean 	20.8
scalar Network.dyn_peer[175] 	lookupTimeSig:mean 	3.9
scalar Network.dyn_peer[175] 	lookupStabilitySig:mean 	0.34963943064213
scalar Network.dyn_peer[175] 	lookupHopsSig:mean 	38.5
scalar Network.dyn_peer[176] 	lookupTimeSig:mean 	1.4
scalar Network.dyn_peer[176] 	lookupStabilitySig:mean 	0.19581805666288
scalar Network.dyn_peer[176] 	lookupHopsSig:mean 	13.333333333333
scalar Network.dyn_peer[177] 	lookupTimeSig:mean 	1.4111111111111
scalar Network.dyn_peer[177] 	lookupStabilitySig:mean 	0.74485453756319
scalar Network.dyn_peer[177] 	lookupHopsSig:mean 	13.222222222222
scalar Network.dyn_peer[178] 	lookupTimeSig:mean 	3.9
scalar Network.dyn_peer[178] 	lookupStabilitySig:mean 	0.41924542809526
scalar Network.dyn_peer[178] 	lookupHopsSig:mean 	38.333333333333
scalar Network.dyn_peer[179] 	lookupTimeSig:mean 	4.5
scalar Network.dyn_peer[179] 	lookupStabilitySig:mean 	0.78170496784151
scalar Network.dyn_peer[179] 	lookupHopsSig:mean 	44.333333333333
scalar Network.dyn_peer[180] 	lookupTimeSig:mean 	2.0333333333333
scalar Network.dyn_peer[180] 	lookupStabilitySig:mean 	0.19065438210964
scalar Network.dyn_peer[180] 	lookupHopsSig:mean 	19.666666666667
scalar Network.dyn_peer[181] 	lookupTimeSig:mean 	3.3
scalar Network.dyn_peer[181] 	lookupStabilitySig:mean 	0.91715330071747
scalar Network.dyn_peer[181] 	lookupHopsSig:mean 	32.2
scalar Network.dyn_peer[182] 	lookupTimeSig:mean 	4.1
scalar Network.dyn_peer[182] 	lookupStabilitySig:mean 	0.13095239549875
scalar Network.dyn_peer[182] 	lookupHopsSig:mean 	40.5
scalar Network.dyn_peer[183] 	lookupTimeSig:mean 	1.4666666666667
scalar Network.dyn_peer[183] 	lookupStabilitySig:mean 	0.75982324453071
scalar Network.dyn_peer[183] 	lookupHopsSig:mean 	13.777777777778
scalar Network.dyn_peer[184] 	lookupTimeSig:mean 	2.1111111111111
scalar Network.dyn_peer[184] 	lookupStabilitySig:mean 	0.72770479456004
scalar Network.dyn_peer[184] 	lookupHopsSig:mean 	20.222222222222
scalar Network.dyn_peer[185] 	lookupTimeSig:mean 	1.7857142857143
scalar Network.dyn_peer[185] 	lookupStabilitySig:mean 	0.96422103878909
scalar Network.dyn_peer[185] 	lookupHopsSig:mean 	16.928571428571
scalar Network.dyn_peer[186] 	lookupTimeSig:mean 	4.4333333333333
scalar Network.dyn_peer[186] 	lookupStabilitySig:mean 	0.84956903631488
scalar Network.dyn_peer[186] 	lookupHopsSig:mean 	43.666666666667
scalar Network.dyn_peer[187] 	lookupTimeSig:mean 	2.3333333333333
scalar Network.dyn_peer[187] 	lookupStabilitySig:mean 	0.28438383340836
scalar Network.dyn_peer[187] 	lookupHopsSig:mean 	22.666666666667
scalar Network.dyn_peer[188] 	lookupTimeSig:mean 	1.325
scalar Network.dyn_peer[188] 	lookupStabilitySig:mean 	0.58389136753976
scalar Network.dyn_peer[188] 	lookupHopsSig:mean 	12.5
scalar Network.dyn_peer[189] 	lookupTimeSig:mean 	2.2714285714286
scalar Network.dyn_peer[189] 	lookupStabilitySig:mean 	0.93144649995624
scalar Network.dyn_peer[189] 	lookupHopsSig:mean 	21.857142857143
scalar Network.dyn_peer[190] 	lookupTimeSig:mean 	1.86
scalar Network.dyn_peer[190] 	lookupStabilitySig:mean 	0.60626698732376
scalar Network.dyn_peer[190] 	lookupHopsSig:mean 	17.8
scalar Network.dyn_peer[191] 	lookupTimeSig:mean 	1.6666666666667
scalar Network.dyn_peer[191] 	lookupStabilitySig:mean 	0.69215088523924
scalar Network.dyn_peer[191] 	lookupHopsSig:mean 	16
scalar Network.dyn_peer[192] 	lookupTimeSig:mean 	2.725
scalar Network.dyn_peer[192] 	lookupStabilitySig:mean 	0.34884332120419
scalar Network.dyn_peer[192] 	lookupHopsSig:mean 	26.5
scalar Network.dyn_peer[193] 	lookupTimeSig:mean 	1.8
scalar Network.dyn_peer[193] 	lookupStabilitySig:mean 	0.52993065565825
scalar Network.dyn_peer[193] 	lookupHopsSig:mean 	17.2
scalar Network.dyn_peer[194] 	lookupTimeSig:mean 	1.6153846153846
scalar Network.dyn_peer[194] 	lookupStabilitySig:mean 	0.83363055838988
scalar Network.dyn_peer[194] 	lookupHopsSig:mean 	15.230769230769
scalar Network.dyn_peer[195] 	lookupTimeSig:mean 	2.5
scalar Network.dyn_peer[195] 	lookupStabilitySig:mean 	0.73442470033964
scalar Network.dyn_peer[195] 	lookupHopsSig:mean 	24.333333333333
scalar Network.dyn_peer[196] 	lookupTimeSig:mean 	2.5888888888889
scalar Network.dyn_peer[196] 	lookupStabilitySig:mean 	0.92661609914568
scalar Network.dyn_peer[196] 	lookupHopsSig:mean 	25
scalar Network.dyn_peer[197] 	lookupTimeSig:mean 	1.8333333333333
scalar Network.dyn_peer[197] 	lookupStabilitySig:mean 	0.75988853702115
scalar Network.dyn_peer[197] 	lookupHopsSig:mean 	17.444444444444
scalar Network.dyn_peer[198] 	lookupTimeSig:mean 	1.7
scalar Network.dyn_peer[198] 	lookupStabilitySig:mean 	0.49754107557237
scalar Network.dyn_peer[198] 	lookupHopsSig:mean 	16.25
scalar Network.dyn_peer[199] 	lookupTimeSig:mean 	2.1333333333333
scalar Network.dyn_peer[199] 	lookupStabilitySig:mean 	0.53457653770844
scalar Network.dyn_peer[199] 	lookupHopsSig:mean 	20.666666666667
scalar Network.dyn_peer[200] 	lookupTimeSig:mean 	1.375
scalar Network.dyn_peer[200] 	lookupStabilitySig:mean 	0.66556175798178
scalar Network.dyn_peer[200] 	lookupHopsSig:mean 	13
scalar Network.dyn_peer[201] 	lookupTimeSig:mean 	1.325
scalar Network.dyn_peer[201] 	lookupStabilitySig:mean 	0.48544899374247
scalar Network.dyn_peer[201] 	lookupHopsSig:mean 	12.5
scalar Network.dyn_peer[202] 	lookupTimeSig:mean 	2.45
scalar Network.dyn_peer[202] 	lookupStabilitySig:mean 	0.95182002676302
scalar Network.dyn_peer[202] 	lookupHopsSig:mean 	23.625
scalar Network.dyn_peer[203] 	lookupTimeSig:mean 	1.6625
scalar Network.dyn_peer[203] 	lookupStabilitySig:mean 	0.87188359367428
scalar Network.dyn_peer[203] 	lookupHopsSig:mean 	15.75
scalar Network.dyn_peer[204] 	lookupTimeSig:mean 	4.25
scalar Network.dyn_peer[204] 	lookupStabilitySig:mean 	0.020685575902462
scalar Network.dyn_peer[204] 	lookupHopsSig:mean 	42
scalar Network.dyn_peer[205] 	lookupTimeSig:mean 	2.08
scalar Network.dyn_peer[205] 	lookupStabilitySig:mean 	0.54949114397168
scalar Network.dyn_peer[205] 	lookupHopsSig:mean 	20
scalar Network.dyn_peer[206] 	lookupTimeSig:mean 	2.35
scalar Network.dyn_peer[206] 	lookupStabilitySig:mean 	0.67571703065187
scalar Network.dyn_peer[206] 	lookupHopsSig:mean 	22.666666666667
scalar Network.dyn_peer[207] 	lookupTimeSig:mean 	1.475
scalar Network.dyn_peer[207] 	lookupStabilitySig:mean 	0.37794606201351
scalar Network.dyn_peer[207] 	lookupHopsSig:mean 	14
scalar Network.dyn_peer[208] 	lookupTimeSig:mean 	3.75
scalar Network.dyn_peer[208] 	lookupStabilitySig:mean 	0.51215719990432
scalar Network.dyn_peer[208] 	lookupHopsSig:mean 	36.75
scalar Network.dyn_peer[209] 	lookupTimeSig:mean 	1.8857142857143
scalar Network.dyn_peer[209] 	lookupStabilitySig:mean 	0.72188508417457
scalar Network.dyn_peer[209] 	lookupHopsSig:mean 	18
scalar Network.dyn_peer[210] 	lookupTimeSig:mean 	2.2
scalar Network.dyn_peer[210] 	lookupStabilitySig:mean 	0.50145306158811
scalar Network.dyn_peer[210] 	lookupHopsSig:mean 	21.2
scalar Network.dyn_peer[211] 	lookupTimeSig:mean 	2.76
scalar Network.dyn_peer[211] 	lookupStabilitySig:mean 	0.9366247234866
scalar Network.dyn_peer[211] 	lookupHopsSig:mean 	26.8
scalar Network.dyn_peer[212] 	lookupTimeSig:mean 	1.38
scalar Network.dyn_peer[212] 	lookupStabilitySig:mean 	0.56878658533096
scalar Network.dyn_peer[212] 	lookupHopsSig:mean 	13
scalar Network.dyn_peer[213] 	lookupTimeSig:mean 	1.975
scalar Network.dyn_peer[213] 	lookupStabilitySig:mean 	0.96159902674844
scalar Network.dyn_peer[213] 	lookupHopsSig:mean 	18.875
scalar Network.dyn_peer[214] 	lookupTimeSig:mean 	1.975
scalar Network.dyn_peer[214] 	lookupStabilitySig:mean 	0.58866165950894
scalar Network.dyn_peer[214] 	lookupHopsSig:mean 	19
scalar Network.dyn_peer[215] 	lookupTimeSig:mean 	3.6666666666667
scalar Network.dyn_peer[215] 	lookupStabilitySig:mean 	0.30116956929366
scalar Network.dyn_peer[215] 	lookupHopsSig:mean 	36
scalar Network.dyn_peer[216] 	lookupTimeSig:mean 	3.02
scalar Network.dyn_peer[216] 	lookupStabilitySig:mean 	0.87437689714134
scalar Network.dyn_peer[216] 	lookupHopsSig:mean 	29.4
scalar Network.dyn_peer[217] 	lookupTimeSig:mean 	1.4928571428571
scalar Network.dyn_peer[217] 	lookupStabilitySig:mean 	0.91072007824135
scalar Network.dyn_peer[217] 	lookupHopsSig:mean 	14
scalar Network.dyn_peer[218] 	lookupTimeSig:mean 	3.12
scalar Network.dyn_peer[218] 	lookupStabilitySig:mean 	0.78129462152719
scalar Network.dyn_peer[218] 	lookupHopsSig:mean 	30.4
scalar Network.dyn_peer[219] 	lookupTimeSig:mean 	1.5333333333333
scalar Network.dyn_peer[219] 	lookupStabilitySig:mean 	0.45797580356399
scalar Network.dyn_peer[219] 	lookupHopsSig:mean 	14.666666666667
scalar Network.dyn_peer[220] 	lookupTimeSig:mean 	1.87
scalar Network.dyn_peer[220] 	lookupStabilitySig:mean 	0.84303409671411
scalar Network.dyn_peer[220] 	lookupHopsSig:mean 	17.8
scalar Network.dyn_peer[221] 	lookupTimeSig:mean 	2.3
scalar Network.dyn_peer[221] 	lookupStabilitySig:mean 	0.95084762495632
scalar Network.dyn_peer[221] 	lookupHopsSig:mean 	22.166666666667
scalar Network.dyn_peer[222] 	lookupTimeSig:mean 	1.7666666666667
scalar Network.dyn_peer[222] 	lookupStabilitySig:mean 	0.66667488977934
scalar Network.dyn_peer[222] 	lookupHopsSig:mean 	16.833333333333
scalar Network.dyn_peer[223] 	lookupTimeSig:mean 	1.975
scalar Network.dyn_peer[223] 	lookupStabilitySig:mean 	0.63478783005849
scalar Network.dyn_peer[223] 	lookupHopsSig:mean 	19
scalar Network.dyn_peer[224] 	lookupTimeSig:mean 	1.725
scalar Network.dyn_peer[224] 	lookupStabilitySig:mean 	0.36296085827053
scalar Network.dyn_peer[224] 	lookupHopsSig:mean 	16.5
scalar Network.dyn_peer[225] 	lookupTimeSig:mean 	1.85
scalar Network.dyn_peer[225] 	lookupStabilitySig:mean 	0.68669445859268
scalar Network.dyn_peer[225] 	lookupHopsSig:mean 	17.75
scalar Network.dyn_peer[226] 	lookupTimeSig:mean 	2.38
scalar Network.dyn_peer[226] 	lookupStabilitySig:mean 	0.94395749699324
scalar Network.dyn_peer[226] 	lookupHopsSig:mean 	22.9
scalar Network.dyn_peer[227] 	lookupTimeSig:mean 	1.4888888888889
scalar Network.dyn_peer[227] 	lookupStabilitySig:mean 	0.77965757442224
scalar Network.dyn_peer[227] 	lookupHopsSig:mean 	14
scalar Network.dyn_peer[228] 	lookupTimeSig:mean 	4.5
scalar Network.dyn_peer[228] 	lookupStabilitySig:mean 	0.5681761726737
scalar Network.dyn_peer[228] 	lookupHopsSig:mean 	44.5
scalar Network.dyn_peer[229] 	lookupTimeSig:mean 	1.625
scalar Network.dyn_peer[229] 	lookupStabilitySig:mean 	0.49031982757151
scalar Network.dyn_peer[229] 	lookupHopsSig:mean 	15.5
scalar Network.dyn_peer[230] 	lookupTimeSig:mean 	2.45
scalar Network.dyn_peer[230] 	lookupStabilitySig:mean 	0.84041338250972
scalar Network.dyn_peer[230] 	lookupHopsSig:mean 	23.75
scalar Network.dyn_peer[231] 	lookupTimeSig:mean 	2.625
scalar Network.dyn_peer[231] 	lookupStabilitySig:mean 	0.78823360614479
scalar Network.dyn_peer[231] 	lookupHopsSig:mean 	25.5
scalar Network.dyn_peer[232] 	lookupTimeSig:mean 	2.6333333333333
scalar Network.dyn_peer[232] 	lookupStabilitySig:mean 	0.36527893940608
scalar Network.dyn_peer[232] 	lookupHopsSig:mean 	25.666666666667
scalar Network.dyn_peer[233] 	lookupTimeSig:mean 	1.7181818181818
scalar Network.dyn_peer[233] 	lookupStabilitySig:mean 	0.82735456949608
scalar Network.dyn_peer[233] 	lookupHopsSig:mean 	16.272727272727
scalar Network.dyn_peer[234] 	lookupTimeSig:mean 	1.975
scalar Network.dyn_peer[234] 	lookupStabilitySig:mean 	0.57756354147568
scalar Network.dyn_peer[234] 	lookupHopsSig:mean 	19
scalar Network.dyn_peer[235] 	lookupTimeSig:mean 	2.8333333333333
scalar Network.dyn_peer[235] 	lookupStabilitySig:mean 	0.3895700275898
scalar Network.dyn_peer[235] 	lookupHopsSig:mean 	27.666666666667
scalar Network.dyn_peer[236] 	lookupTimeSig:mean 	1.525
scalar Network.dyn_peer[236] 	lookupStabilitySig:mean 	0.48982593417168
scalar Network.dyn_peer[236] 	lookupHopsSig:mean 	14.5
scalar Network.dyn_peer[237] 	lookupTimeSig:mean 	2.3
scalar Network.dyn_peer[237] 	lookupStabilitySig:mean 	0.70092677883804
scalar Network.dyn_peer[237] 	lookupHopsSig:mean 	22.25
scalar Network.dyn_peer[238] 	lookupTimeSig:mean 	1.575
scalar Network.dyn_peer[238] 	lookupStabilitySig:mean 	0.79918774636462
scalar Network.dyn_peer[238] 	lookupHopsSig:mean 	15
scalar Network.dyn_peer[239] 	lookupTimeSig:mean 	2.275
scalar Network.dyn_peer[239] 	lookupStabilitySig:mean 	0.57675704639405
scalar Network.dyn_peer[239] 	lookupHopsSig:mean 	22
scalar Network.dyn_peer[240] 	lookupTimeSig:mean 	1.25
scalar Network.dyn_peer[240] 	lookupStabilitySig:mean 	0.75371052037614
scalar Network.dyn_peer[240] 	lookupHopsSig:mean 	11.666666666667
scalar Network.dyn_peer[241] 	lookupTimeSig:mean 	2.2357142857143
scalar Network.dyn_peer[241] 	lookupStabilitySig:mean 	0.97273688804125
scalar Network.dyn_peer[241] 	lookupHopsSig:mean 	21.428571428571
scalar Network.dyn_peer[242] 	lookupTimeSig:mean 	3.5666666666667
scalar Network.dyn_peer[242] 	lookupStabilitySig:mean 	0.3506880775094
scalar Network.dyn_peer[242] 	lookupHopsSig:mean 	35
scalar Network.dyn_peer[243] 	lookupTimeSig:mean 	1.7833333333333
scalar Network.dyn_peer[243] 	lookupStabilitySig:mean 	0.66529558567951
scalar Network.dyn_peer[243] 	lookupHopsSig:mean 	17
scalar Network.dyn_peer[244] 	lookupTimeSig:mean 	3.8
scalar Network.dyn_peer[244] 	lookupStabilitySig:mean 	0.77947882562876
scalar Network.dyn_peer[244] 	lookupHopsSig:mean 	37.5
scalar Network.dyn_peer[245] 	lookupTimeSig:mean 	2.2666666666667
scalar Network.dyn_peer[245] 	lookupStabilitySig:mean 	0.71359275281429
scalar Network.dyn_peer[245] 	lookupHopsSig:mean 	22
scalar Network.dyn_peer[246] 	lookupTimeSig:mean 	2.0857142857143
scalar Network.dyn_peer[246] 	lookupStabilitySig:mean 	0.86128873431257
scalar Network.dyn_peer[246] 	lookupHopsSig:mean 	20
scalar Network.dyn_peer[247] 	lookupTimeSig:mean 	2.35
scalar Network.dyn_peer[247] 	lookupStabilitySig:mean 	0.61867180420086
scalar Network.dyn_peer[247] 	lookupHopsSig:mean 	22.75
scalar Network.dyn_peer[248] 	lookupTimeSig:mean 	2.25
scalar Network.dyn_peer[248] 	lookupStabilitySig:mean 	0.66539989411831
scalar Network.dyn_peer[248] 	lookupHopsSig:mean 	21.75
scalar Network.dyn_peer[249] 	lookupTimeSig:mean 	2.7428571428571
scalar Network.dyn_peer[249] 	lookupStabilitySig:mean 	0.95778605468305
scalar Network.dyn_peer[249] 	lookupHopsSig:mean 	26.571428571429
scalar Network.dyn_peer[250] 	lookupTimeSig:mean 	1.3
scalar Network.dyn_peer[250] 	lookupStabilitySig:mean 	0.73443549635288
scalar Network.dyn_peer[250] 	lookupHopsSig:mean 	12.142857142857
scalar Network.dyn_peer[251] 	lookupTimeSig:mean 	1.8666666666667
scalar Network.dyn_peer[251] 	lookupStabilitySig:mean 	0.43920002381007
scalar Network.dyn_peer[251] 	lookupHopsSig:mean 	18
scalar Network.dyn_peer[252] 	lookupTimeSig:mean 	1.275
scalar Network.dyn_peer[252] 	lookupStabilitySig:mean 	0.90754937039067
scalar Network.dyn_peer[252] 	lookupHopsSig:mean 	11.833333333333
scalar Network.dyn_peer[253] 	lookupTimeSig:mean 	2.0714285714286
scalar Network.dyn_peer[253] 	lookupStabilitySig:mean 	0.75614478745099
scalar Network.dyn_peer[253] 	lookupHopsSig:mean 	19.857142857143
scalar Network.dyn_peer[254] 	lookupTimeSig:mean 	2.375
scalar Network.dyn_peer[254] 	lookupStabilitySig:mean 	0.85313055943698
scalar Network.dyn_peer[254] 	lookupHopsSig:mean 	23
scalar Network.dyn_peer[255] 	lookupTimeSig:mean 	2.55
scalar Network.dyn_peer[255] 	lookupStabilitySig:mean 	0.81112986803055
scalar Network.dyn_peer[255] 	lookupHopsSig:mean 	24.75
scalar Network.dyn_peer[256] 	lookupTimeSig:mean 	2.4333333333333
scalar Network.dyn_peer[256] 	lookupStabilitySig:mean 	0.84522277551393
scalar Network.dyn_peer[256] 	lookupHopsSig:mean 	23.666666666667
scalar Network.dyn_peer[257] 	lookupTimeSig:mean 	3.35
scalar Network.dyn_peer[257] 	lookupStabilitySig:mean 	0.018877550959587
scalar Network.dyn_peer[257] 	lookupHopsSig:mean 	33
scalar Network.dyn_peer[258] 	lookupTimeSig:mean 	1.9333333333333
scalar Network.dyn_peer[258] 	lookupStabilitySig:mean 	0.67117231152952
scalar Network.dyn_peer[258] 	lookupHopsSig:mean 	18.5
scalar Network.dyn_peer[259] 	lookupTimeSig:mean 	2.1615384615385
scalar Network.dyn_peer[259] 	lookupStabilitySig:mean 	0.96253820680655
scalar Network.dyn_peer[259] 	lookupHopsSig:mean 	20.692307692308
scalar Network.dyn_peer[260] 	lookupTimeSig:mean 	1.5777777777778
scalar Network.dyn_peer[260] 	lookupStabilitySig:mean 	0.93838806641806
scalar Network.dyn_peer[260] 	lookupHopsSig:mean 	14.888888888889
scalar Network.dyn_peer[261] 	lookupTimeSig:mean 	1.325
scalar Network.dyn_peer[261] 	lookupStabilitySig:mean 	0.54120094864629
scalar Network.dyn_peer[261] 	lookupHopsSig:mean 	12.5
scalar Network.dyn_peer[262] 	lookupTimeSig:mean 	1.4
scalar Network.dyn_peer[262] 	lookupStabilitySig:mean 	0.82830990535709
scalar Network.dyn_peer[262] 	lookupHopsSig:mean 	13.076923076923
scalar Network.dyn_peer[263] 	lookupTimeSig:mean 	1.94
scalar Network.dyn_peer[263] 	lookupStabilitySig:mean 	0.63049812912941
scalar Network.dyn_peer[263] 	lookupHopsSig:mean 	18.6
scalar Network.dyn_peer[264] 	lookupTimeSig:mean 	3.2333333333333
scalar Network.dyn_peer[264] 	lookupStabilitySig:mean 	0.86565550789237
scalar Network.dyn_peer[264] 	lookupHopsSig:mean 	31.666666666667
scalar Network.dyn_peer[265] 	lookupTimeSig:mean 	1.15
scalar Network.dyn_peer[265] 	lookupStabilitySig:mean 	0.45008090138435
scalar Network.dyn_peer[265] 	lookupHopsSig:mean 	10.75
scalar Network.dyn_peer[266] 	lookupTimeSig:mean 	1.7230769230769
scalar Network.dyn_peer[266] 	lookupStabilitySig:mean 	0.88590822562289
scalar Network.dyn_peer[266] 	lookupHopsSig:mean 	16.307692307692
scalar Network.dyn_peer[267] 	lookupTimeSig:mean 	1.3222222222222
scalar Network.dyn_peer[267] 	lookupStabilitySig:mean 	0.81574158691284
scalar Network.dyn_peer[267] 	lookupHopsSig:mean 	12.333333333333
scalar Network.dyn_peer[268] 	lookupTimeSig:mean 	2.38
scalar Network.dyn_peer[268] 	lookupStabilitySig:mean 	0.60613925158978
scalar Network.dyn_peer[268] 	lookupHopsSig:mean 	23
scalar Network.dyn_peer[269] 	lookupTimeSig:mean 	2.8333333333333
scalar Network.dyn_peer[269] 	lookupStabilitySig:mean 	0.43494994441668
scalar Network.dyn_peer[269] 	lookupHopsSig:mean 	27.666666666667
scalar Network.dyn_peer[270] 	lookupTimeSig:mean 	1.1
scalar Network.dyn_peer[270] 	lookupStabilitySig:mean 	0.36485043540597
scalar Network.dyn_peer[270] 	lookupHopsSig:mean 	10.25
scalar Network.dyn_peer[271] 	lookupTimeSig:mean 	1.7
scalar Network.dyn_peer[271] 	lookupStabilitySig:mean 	0.40604257024825
scalar Network.dyn_peer[271] 	lookupHopsSig:mean 	16.25
scalar Network.dyn_peer[272] 	lookupTimeSig:mean 	1.5866666666667
scalar Network.dyn_peer[272] 	lookupStabilitySig:mean 	0.95695805996656
scalar Network.dyn_peer[272] 	lookupHopsSig:mean 	14.933333333333
scalar Network.dyn_peer[273] 	lookupTimeSig:mean 	1.5
scalar Network.dyn_peer[273] 	lookupStabilitySig:mean 	0.37945419177413
scalar Network.dyn_peer[273] 	lookupHopsSig:mean 	14.25
scalar Network.dyn_peer[274] 	lookupTimeSig:mean 	1.8
scalar Network.dyn_peer[274] 	lookupStabilitySig:mean 	0.91727866698056
scalar Network.dyn_peer[274] 	lookupHopsSig:mean 	17.142857142857
scalar Network.dyn_peer[275] 	lookupTimeSig:mean 	1.4
scalar Network.dyn_peer[275] 	lookupStabilitySig:mean 	0.68020411934704
scalar Network.dyn_peer[275] 	lookupHopsSig:mean 	13.2
scalar Network.dyn_peer[276] 	lookupTimeSig:mean 	2.35
scalar Network.dyn_peer[276] 	lookupStabilitySig:mean 	0.58045850414783
scalar Network.dyn_peer[276] 	lookupHopsSig:mean 	22.75
scalar Network.dyn_peer[277] 	lookupTimeSig:mean 	2.1666666666667
scalar Network.dyn_peer[277] 	lookupStabilitySig:mean 	0.68535997082169
scalar Network.dyn_peer[277] 	lookupHopsSig:mean 	20.833333333333
scalar Network.dyn_peer[278] 	lookupTimeSig:mean 	1.8222222222222
scalar Network.dyn_peer[278] 	lookupStabilitySig:mean 	0.95853446113567
scalar Network.dyn_peer[278] 	lookupHopsSig:mean 	17.333333333333
scalar Network.dyn_peer[279] 	lookupTimeSig:mean 	2.8333333333333
scalar Network.dyn_peer[279] 	lookupStabilitySig:mean 	0.72409535820285
scalar Network.dyn_peer[279] 	lookupHopsSig:mean 	27.666666666667
scalar Network.dyn_peer[280] 	lookupTimeSig:mean 	2.3666666666667
scalar Network.dyn_peer[280] 	lookupStabilitySig:mean 	0.81507544716199
scalar Network.dyn_peer[280] 	lookupHopsSig:mean 	23
scalar Network.dyn_peer[281] 	lookupTimeSig:mean 	1.62
scalar Network.dyn_peer[281] 	lookupStabilitySig:mean 	0.52773018926382
scalar Network.dyn_peer[281] 	lookupHopsSig:mean 	15.4
scalar Network.dyn_peer[282] 	lookupTimeSig:mean 	2.38
scalar Network.dyn_peer[282] 	lookupStabilitySig:mean 	0.7989389538765
scalar Network.dyn_peer[282] 	lookupHopsSig:mean 	23
scalar Network.dyn_peer[283] 	lookupTimeSig:mean 	2.1666666666667
scalar Network.dyn_peer[283] 	lookupStabilitySig:mean 	0.50372669597467
scalar Network.dyn_peer[283] 	lookupHopsSig:mean 	21
scalar Network.dyn_peer[284] 	lookupTimeSig:mean 	1.9714285714286
scalar Network.dyn_peer[284] 	lookupStabilitySig:mean 	0.86168659611472
scalar Network.dyn_peer[284] 	lookupHopsSig:mean 	18.857142857143
scalar Network.dyn_peer[285] 	lookupTimeSig:mean 	1.4444444444444
scalar Network.dyn_peer[285] 	lookupStabilitySig:mean 	0.74197609888183
scalar Network.dyn_peer[285] 	lookupHopsSig:mean 	13.555555555556
scalar Network.dyn_peer[286] 	lookupTimeSig:mean 	3.1333333333333
scalar Network.dyn_peer[286] 	lookupStabilitySig:mean 	0.79843222349882
scalar Network.dyn_peer[286] 	lookupHopsSig:mean 	30.666666666667
scalar Network.dyn_peer[287] 	lookupTimeSig:mean 	2.4
scalar Network.dyn_peer[287] 	lookupStabilitySig:mean 	0.77841683616862
scalar Network.dyn_peer[287] 	lookupHopsSig:mean 	23.25
scalar Network.dyn_peer[288] 	lookupTimeSig:mean 	2.3
scalar Network.dyn_peer[288] 	lookupStabilitySig:mean 	0.79311152920127
scalar Network.dyn_peer[288] 	lookupHopsSig:mean 	22.25
scalar Network.dyn_peer[289] 	lookupTimeSig:mean 	2.7
scalar Network.dyn_peer[289] 	lookupStabilitySig:mean 	0.61836081370711
scalar Network.dyn_peer[289] 	lookupHopsSig:mean 	26.5
scalar Network.dyn_peer[290] 	lookupTimeSig:mean 	2.46
scalar Network.dyn_peer[290] 	lookupStabilitySig:mean 	0.95696039167233
scalar Network.dyn_peer[290] 	lookupHopsSig:mean 	23.7
scalar Network.dyn_peer[291] 	lookupTimeSig:mean 	2.3666666666667
scalar Network.dyn_peer[291] 	lookupStabilitySig:mean 	0.43803116927544
scalar Network.dyn_peer[291] 	lookupHopsSig:mean 	23
scalar Network.dyn_peer[292] 	lookupTimeSig:mean 	1.85
scalar Network.dyn_peer[292] 	lookupStabilitySig:mean 	0.062499977648258
scalar Network.dyn_peer[292] 	lookupHopsSig:mean 	18
scalar Network.dyn_peer[293] 	lookupTimeSig:mean 	2.7
scalar Network.dyn_peer[293] 	lookupStabilitySig:mean 	0.34570299088955
scalar Network.dyn_peer[293] 	lookupHopsSig:mean 	26.25
scalar Network.dyn_peer[294] 	lookupTimeSig:mean 	2.16
scalar Network.dyn_peer[294] 	lookupStabilitySig:mean 	0.85160465203226
scalar Network.dyn_peer[294] 	lookupHopsSig:mean 	20.8
scalar Network.dyn_peer[295] 	lookupTimeSig:mean 	1.65
scalar Network.dyn_peer[295] 	lookupStabilitySig:mean 	0.69712951942347
scalar Network.dyn_peer[295] 	lookupHopsSig:mean 	15.625
scalar Network.dyn_peer[296] 	lookupTimeSig:mean 	2.4833333333333
scalar Network.dyn_peer[296] 	lookupStabilitySig:mean 	0.61738503072411
scalar Network.dyn_peer[296] 	lookupHopsSig:mean 	24
scalar Network.dyn_peer[297] 	lookupTimeSig:mean 	2.3142857142857
scalar Network.dyn_peer[297] 	lookupStabilitySig:mean 	0.710101443742
scalar Network.dyn_peer[297] 	lookupHopsSig:mean 	22.285714285714
scalar Network.dyn_peer[298] 	lookupTimeSig:mean 	0.95714285714286
scalar Network.dyn_peer[298] 	lookupStabilitySig:mean 	0.6706752694611
scalar Network.dyn_peer[298] 	lookupHopsSig:mean 	8.7142857142857
scalar Network.dyn_peer[299] 	lookupTimeSig:mean 	1.4888888888889
scalar Network.dyn_peer[299] 	lookupStabilitySig:mean 	0.72042857990083
scalar Network.dyn_peer[299] 	lookupHopsSig:mean 	14
scalar Network.dyn_peer[300] 	lookupTimeSig:mean 	1.4833333333333
scalar Network.dyn_peer[300] 	lookupStabilitySig:mean 	0.83774034213275
scalar Network.dyn_peer[300] 	lookupHopsSig:mean 	14
scalar Network.dyn_peer[301] 	lookupTimeSig:mean 	2.8888888888889
scalar Network.dyn_peer[301] 	lookupStabilitySig:mean 	0.88291749854883
scalar Network.dyn_peer[301] 	lookupHopsSig:mean 	28
scalar Network.dyn_peer[302] 	lookupTimeSig:mean 	1.9125
scalar Network.dyn_peer[302] 	lookupStabilitySig:mean 	0.93084949033801
scalar Network.dyn_peer[302] 	lookupHopsSig:mean 	18.25
scalar Network.dyn_peer[303] 	lookupTimeSig:mean 	2.3
scalar Network.dyn_peer[303] 	lookupStabilitySig:mean 	0.77498192489147
scalar Network.dyn_peer[303] 	lookupHopsSig:mean 	22.2
scalar Network.dyn_peer[304] 	lookupTimeSig:mean 	1.3066666666667
scalar Network.dyn_peer[304] 	lookupStabilitySig:mean 	0.96623652431493
scalar Network.dyn_peer[304] 	lookupHopsSig:mean 	12.133333333333
scalar Network.dyn_peer[305] 	lookupTimeSig:mean 	3.6333333333333
scalar Network.dyn_peer[305] 	lookupStabilitySig:mean 	0.45321947832902
scalar Network.dyn_peer[305] 	lookupHopsSig:mean 	35.666666666667
scalar Network.dyn_peer[306] 	lookupTimeSig:mean 	2.1
scalar Network.dyn_peer[306] 	lookupStabilitySig:mean 	0.33430334894607
scalar Network.dyn_peer[306] 	lookupHopsSig:mean 	20.333333333333
scalar Network.dyn_peer[307] 	lookupTimeSig:mean 	2.2857142857143
scalar Network.dyn_peer[307] 	lookupStabilitySig:mean 	0.92807409892391
scalar Network.dyn_peer[307] 	lookupHopsSig:mean 	22
scalar Network.dyn_peer[308] 	lookupTimeSig:mean 	2.2714285714286
scalar Network.dyn_peer[308] 	lookupStabilitySig:mean 	0.93026460467705
scalar Network.dyn_peer[308] 	lookupHopsSig:mean 	21.857142857143
scalar Network.dyn_peer[309] 	lookupTimeSig:mean 	3.2
scalar Network.dyn_peer[309] 	lookupStabilitySig:mean 	0.58635431854054
scalar Network.dyn_peer[309] 	lookupHopsSig:mean 	31.25
scalar Network.dyn_peer[310] 	lookupTimeSig:mean 	2.3125
scalar Network.dyn_peer[310] 	lookupStabilitySig:mean 	0.95235380221857
scalar Network.dyn_peer[310] 	lookupHopsSig:mean 	22.25
scalar Network.dyn_peer[311] 	lookupTimeSig:mean 	3.0285714285714
scalar Network.dyn_peer[311] 	lookupStabilitySig:mean 	0.9472717916859
scalar Network.dyn_peer[311] 	lookupHopsSig:mean 	29.428571428571
scalar Network.dyn_peer[312] 	lookupTimeSig:mean 	1.98
scalar Network.dyn_peer[312] 	lookupStabilitySig:mean 	0.92172611951828
scalar Network.dyn_peer[312] 	lookupHopsSig:mean 	19
scalar Network.dyn_peer[313] 	lookupTimeSig:mean 	2.275
scalar Network.dyn_peer[313] 	lookupStabilitySig:mean 	0.52310143597424
scalar Network.dyn_peer[313] 	lookupHopsSig:mean 	22
scalar Network.dyn_peer[314] 	lookupTimeSig:mean 	1.15
scalar Network.dyn_peer[314] 	lookupStabilitySig:mean 	0.65527582820505
scalar Network.dyn_peer[314] 	lookupHopsSig:mean 	10.75
scalar Network.dyn_peer[315] 	lookupTimeSig:mean 	1.3
scalar Network.dyn_peer[315] 	lookupStabilitySig:mean 	0.40791287521521
scalar Network.dyn_peer[315] 	lookupHopsSig:mean 	12.333333333333
scalar Network.dyn_peer[316] 	lookupTimeSig:mean 	2.48
scalar Network.dyn_peer[316] 	lookupStabilitySig:mean 	0.94906236252282
scalar Network.dyn_peer[316] 	lookupHopsSig:mean 	23.9
scalar Network.dyn_peer[317] 	lookupTimeSig:mean 	2.84
scalar Network.dyn_peer[317] 	lookupStabilitySig:mean 	0.9277943611145
scalar Network.dyn_peer[317] 	lookupHopsSig:mean 	27.6
scalar Network.dyn_peer[318] 	lookupTimeSig:mean 	2.8333333333333
scalar Network.dyn_peer[318] 	lookupStabilitySig:mean 	0.74810518448551
scalar Network.dyn_peer[318] 	lookupHopsSig:mean 	27.666666666667
scalar Network.dyn_peer[319] 	lookupTimeSig:mean 	2.24
scalar Network.dyn_peer[319] 	lookupStabilitySig:mean 	0.62865449432284
scalar Network.dyn_peer[319] 	lookupHopsSig:mean 	21.6
scalar Network.dyn_peer[320] 	lookupTimeSig:mean 	2.2
scalar Network.dyn_peer[320] 	lookupStabilitySig:mean 	0.23804346472025
scalar Network.dyn_peer[320] 	lookupHopsSig:mean 	21.5
scalar Network.dyn_peer[321] 	lookupTimeSig:mean 	1.3454545454545
scalar Network.dyn_peer[321] 	lookupStabilitySig:mean 	0.93341528224251
scalar Network.dyn_peer[321] 	lookupHopsSig:mean 	12.545454545455
scalar Network.dyn_peer[322] 	lookupTimeSig:mean 	1.55
scalar Network.dyn_peer[322] 	lookupStabilitySig:mean 	0.80887969350442
scalar Network.dyn_peer[322] 	lookupHopsSig:mean 	14.6
scalar Network.dyn_peer[323] 	lookupTimeSig:mean 	0.53333333333333
scalar Network.dyn_peer[323] 	lookupStabilitySig:mean 	0.33611112336318
scalar Network.dyn_peer[323] 	lookupHopsSig:mean 	4.6666666666667
scalar Network.dyn_peer[324] 	lookupTimeSig:mean 	1.775
scalar Network.dyn_peer[324] 	lookupStabilitySig:mean 	0.84650020580739
scalar Network.dyn_peer[324] 	lookupHopsSig:mean 	17
scalar Network.dyn_peer[325] 	lookupTimeSig:mean 	0.65
scalar Network.dyn_peer[325] 	lookupStabilitySig:mean 	0.50277777388692
scalar Network.dyn_peer[325] 	lookupHopsSig:mean 	5.75
scalar Network.dyn_peer[326] 	lookupTimeSig:mean 	1.7
scalar Network.dyn_peer[326] 	lookupStabilitySig:mean 	0.84424138454986
scalar Network.dyn_peer[326] 	lookupHopsSig:mean 	16.142857142857
scalar Network.dyn_peer[327] 	lookupTimeSig:mean 	5.1
scalar Network.dyn_peer[327] 	lookupStabilitySig:mean 	0.68650944903493
scalar Network.dyn_peer[327] 	lookupHopsSig:mean 	50.5
scalar Network.dyn_peer[328] 	lookupTimeSig:mean 	1.675
scalar Network.dyn_peer[328] 	lookupStabilitySig:mean 	0.8739755442366
scalar Network.dyn_peer[328] 	lookupHopsSig:mean 	16
scalar Network.dyn_peer[329] 	lookupTimeSig:mean 	1.2777777777778
scalar Network.dyn_peer[329] 	lookupStabilitySig:mean 	0.87582515832037
scalar Network.dyn_peer[329] 	lookupHopsSig:mean 	11.888888888889
scalar Network.dyn_peer[330] 	lookupTimeSig:mean 	1.3666666666667
scalar Network.dyn_peer[330] 	lookupStabilitySig:mean 	0.28132832050323
scalar Network.dyn_peer[330] 	lookupHopsSig:mean 	13
scalar Network.dyn_peer[331] 	lookupTimeSig:mean 	2.44
scalar Network.dyn_peer[331] 	lookupStabilitySig:mean 	0.8818974789232
scalar Network.dyn_peer[331] 	lookupHopsSig:mean 	23.6
scalar Network.dyn_peer[332] 	lookupTimeSig:mean 	1.6
scalar Network.dyn_peer[332] 	lookupStabilitySig:mean 	0.419821575284
scalar Network.dyn_peer[332] 	lookupHopsSig:mean 	15.333333333333
scalar Network.dyn_peer[333] 	lookupTimeSig:mean 	2.65
scalar Network.dyn_peer[333] 	lookupStabilitySig:mean 	0.40650832094252
scalar Network.dyn_peer[333] 	lookupHopsSig:mean 	25.75
scalar Network.dyn_peer[334] 	lookupTimeSig:mean 	2.66
scalar Network.dyn_peer[334] 	lookupStabilitySig:mean 	0.95053798506657
scalar Network.dyn_peer[334] 	lookupHopsSig:mean 	25.666666666667
scalar Network.dyn_peer[335] 	lookupTimeSig:mean 	1.525
scalar Network.dyn_peer[335] 	lookupStabilitySig:mean 	0.75635961676016
scalar Network.dyn_peer[335] 	lookupHopsSig:mean 	14.375
scalar Network.dyn_peer[336] 	lookupTimeSig:mean 	1.3666666666667
scalar Network.dyn_peer[336] 	lookupStabilitySig:mean 	0.31501830617587
scalar Network.dyn_peer[336] 	lookupHopsSig:mean 	13
scalar Network.dyn_peer[337] 	lookupTimeSig:mean 	3.8
scalar Network.dyn_peer[337] 	lookupStabilitySig:mean 	0.85853109136224
scalar Network.dyn_peer[337] 	lookupHopsSig:mean 	37.333333333333
scalar Network.dyn_peer[338] 	lookupTimeSig:mean 	1.2666666666667
scalar Network.dyn_peer[338] 	lookupStabilitySig:mean 	0.61133457813412
scalar Network.dyn_peer[338] 	lookupHopsSig:mean 	11.833333333333
scalar Network.dyn_peer[339] 	lookupTimeSig:mean 	1.175
scalar Network.dyn_peer[339] 	lookupStabilitySig:mean 	0.47433991730213
scalar Network.dyn_peer[339] 	lookupHopsSig:mean 	11
scalar Network.dyn_peer[340] 	lookupTimeSig:mean 	1.3916666666667
scalar Network.dyn_peer[340] 	lookupStabilitySig:mean 	0.93487543311979
scalar Network.dyn_peer[340] 	lookupHopsSig:mean 	13
scalar Network.dyn_peer[341] 	lookupTimeSig:mean 	2
scalar Network.dyn_peer[341] 	lookupStabilitySig:mean 	0.54999999329448
scalar Network.dyn_peer[341] 	lookupHopsSig:mean 	19.5
scalar Network.dyn_peer[342] 	lookupTimeSig:mean 	2.2454545454545
scalar Network.dyn_peer[342] 	lookupStabilitySig:mean 	0.95533552215519
scalar Network.dyn_peer[342] 	lookupHopsSig:mean 	21.545454545455
scalar Network.dyn_peer[343] 	lookupTimeSig:mean 	1.69
scalar Network.dyn_peer[343] 	lookupStabilitySig:mean 	0.96750002480112
scalar Network.dyn_peer[343] 	lookupHopsSig:mean 	16
scalar Network.dyn_peer[344] 	lookupTimeSig:mean 	2.85
scalar Network.dyn_peer[344] 	lookupStabilitySig:mean 	0.76717352308333
scalar Network.dyn_peer[344] 	lookupHopsSig:mean 	28
scalar Network.dyn_peer[345] 	lookupTimeSig:mean 	3.7333333333333
scalar Network.dyn_peer[345] 	lookupStabilitySig:mean 	0.8601259700954
scalar Network.dyn_peer[345] 	lookupHopsSig:mean 	36.666666666667
scalar Network.dyn_peer[346] 	lookupTimeSig:mean 	1.9666666666667
scalar Network.dyn_peer[346] 	lookupStabilitySig:mean 	0.94397755828686
scalar Network.dyn_peer[346] 	lookupHopsSig:mean 	18.75
scalar Network.dyn_peer[347] 	lookupTimeSig:mean 	2.4285714285714
scalar Network.dyn_peer[347] 	lookupStabilitySig:mean 	0.95662294447954
scalar Network.dyn_peer[347] 	lookupHopsSig:mean 	23.428571428571
scalar Network.dyn_peer[348] 	lookupTimeSig:mean 	2.125
scalar Network.dyn_peer[348] 	lookupStabilitySig:mean 	0.85868052765727
scalar Network.dyn_peer[348] 	lookupHopsSig:mean 	20.5
scalar Network.dyn_peer[349] 	lookupTimeSig:mean 	2.375
scalar Network.dyn_peer[349] 	lookupStabilitySig:mean 	0.75592755060643
scalar Network.dyn_peer[349] 	lookupHopsSig:mean 	23
scalar Network.dyn_peer[350] 	lookupTimeSig:mean 	1.4333333333333
scalar Network.dyn_peer[350] 	lookupStabilitySig:mean 	0.56266233325005
scalar Network.dyn_peer[350] 	lookupHopsSig:mean 	13.666666666667
scalar Network.dyn_peer[351] 	lookupTimeSig:mean 	2.0285714285714
scalar Network.dyn_peer[351] 	lookupStabilitySig:mean 	0.96358961758337
scalar Network.dyn_peer[351] 	lookupHopsSig:mean 	19.428571428571
scalar Network.dyn_peer[352] 	lookupTimeSig:mean 	2.8
scalar Network.dyn_peer[352] 	lookupStabilitySig:mean 	0.63939165696502
scalar Network.dyn_peer[352] 	lookupHopsSig:mean 	27.5
scalar Network.dyn_peer[353] 	lookupTimeSig:mean 	2.82
scalar Network.dyn_peer[353] 	lookupStabilitySig:mean 	0.59219876676798
scalar Network.dyn_peer[353] 	lookupHopsSig:mean 	27.4
scalar Network.dyn_peer[354] 	lookupTimeSig:mean 	2.42
scalar Network.dyn_peer[354] 	lookupStabilitySig:mean 	0.79012738764286
scalar Network.dyn_peer[354] 	lookupHopsSig:mean 	23.4
scalar Network.dyn_peer[355] 	lookupTimeSig:mean 	2.55
scalar Network.dyn_peer[355] 	lookupStabilitySig:mean 	0.68071586638689
scalar Network.dyn_peer[355] 	lookupHopsSig:mean 	25
scalar Network.dyn_peer[356] 	lookupTimeSig:mean 	1.6
scalar Network.dyn_peer[356] 	lookupStabilitySig:mean 	0.39378539472818
scalar Network.dyn_peer[356] 	lookupHopsSig:mean 	15.333333333333
scalar Network.dyn_peer[357] 	lookupTimeSig:mean 	2.2142857142857
scalar Network.dyn_peer[357] 	lookupStabilitySig:mean 	0.75413252546319
scalar Network.dyn_peer[357] 	lookupHopsSig:mean 	21.285714285714
scalar Network.dyn_peer[358] 	lookupTimeSig:mean 	3.85
scalar Network.dyn_peer[358] 	lookupStabilitySig:mean 	0.75990391522646
scalar Network.dyn_peer[358] 	lookupHopsSig:mean 	38
scalar Network.dyn_peer[359] 	lookupTimeSig:mean 	1.625
scalar Network.dyn_peer[359] 	lookupStabilitySig:mean 	0.47383371368051
scalar Network.dyn_peer[359] 	lookupHopsSig:mean 	15.5
scalar Network.dyn_peer[360] 	lookupTimeSig:mean 	1.275
scalar Network.dyn_peer[360] 	lookupStabilitySig:mean 	0.80688387714326
scalar Network.dyn_peer[360] 	lookupHopsSig:mean 	11.875
scalar Network.dyn_peer[361] 	lookupTimeSig:mean 	0.75
scalar Network.dyn_peer[361] 	lookupStabilitySig:mean 	0.38909314200282
scalar Network.dyn_peer[361] 	lookupHopsSig:mean 	6.75
scalar Network.dyn_peer[362] 	lookupTimeSig:mean 	3.0333333333333
scalar Network.dyn_peer[362] 	lookupStabilitySig:mean 	0.72432113563021
scalar Network.dyn_peer[362] 	lookupHopsSig:mean 	29.666666666667
scalar Network.dyn_peer[363] 	lookupTimeSig:mean 	2.0777777777778
scalar Network.dyn_peer[363] 	lookupStabilitySig:mean 	0.94242147159659
scalar Network.dyn_peer[363] 	lookupHopsSig:mean 	19.888888888889
scalar Network.dyn_peer[364] 	lookupTimeSig:mean 	1.8285714285714
scalar Network.dyn_peer[364] 	lookupStabilitySig:mean 	0.8984613678019
scalar Network.dyn_peer[364] 	lookupHopsSig:mean 	17.357142857143
scalar Network.dyn_peer[365] 	lookupTimeSig:mean 	2.1
scalar Network.dyn_peer[365] 	lookupStabilitySig:mean 	0.88562074583024
scalar Network.dyn_peer[365] 	lookupHopsSig:mean 	20.25
scalar Network.dyn_peer[366] 	lookupTimeSig:mean 	2.925
scalar Network.dyn_peer[366] 	lookupStabilitySig:mean 	0.90566247608513
scalar Network.dyn_peer[366] 	lookupHopsSig:mean 	28.5
scalar Network.dyn_peer[367] 	lookupTimeSig:mean 	1.2285714285714
scalar Network.dyn_peer[367] 	lookupStabilitySig:mean 	0.7053770559973
scalar Network.dyn_peer[367] 	lookupHopsSig:mean 	11.428571428571
scalar Network.dyn_peer[368] 	lookupTimeSig:mean 	1.75
scalar Network.dyn_peer[368] 	lookupStabilitySig:mean 	0.17816743254662
scalar Network.dyn_peer[368] 	lookupHopsSig:mean 	17
scalar Network.dyn_peer[369] 	lookupTimeSig:mean 	1.8333333333333
scalar Network.dyn_peer[369] 	lookupStabilitySig:mean 	0.73007499302427
scalar Network.dyn_peer[369] 	lookupHopsSig:mean 	17.666666666667
scalar Network.dyn_peer[370] 	lookupTimeSig:mean 	2.1444444444444
scalar Network.dyn_peer[370] 	lookupStabilitySig:mean 	0.89703753906199
scalar Network.dyn_peer[370] 	lookupHopsSig:mean 	20.555555555556
scalar Network.dyn_peer[371] 	lookupTimeSig:mean 	2.3142857142857
scalar Network.dyn_peer[371] 	lookupStabilitySig:mean 	0.93221906466143
scalar Network.dyn_peer[371] 	lookupHopsSig:mean 	22.285714285714
scalar Network.dyn_peer[372] 	lookupTimeSig:mean 	1.4333333333333
scalar Network.dyn_peer[372] 	lookupStabilitySig:mean 	0.82327674287889
scalar Network.dyn_peer[372] 	lookupHopsSig:mean 	13.444444444444
scalar Network.dyn_peer[373] 	lookupTimeSig:mean 	2.8333333333333
scalar Network.dyn_peer[373] 	lookupStabilitySig:mean 	0.72505383938551
scalar Network.dyn_peer[373] 	lookupHopsSig:mean 	27.666666666667
scalar Network.dyn_peer[374] 	lookupTimeSig:mean 	2.1333333333333
scalar Network.dyn_peer[374] 	lookupStabilitySig:mean 	0.91278074474798
scalar Network.dyn_peer[374] 	lookupHopsSig:mean 	20.444444444444
scalar Network.dyn_peer[375] 	lookupTimeSig:mean 	1.7666666666667
scalar Network.dyn_peer[375] 	lookupStabilitySig:mean 	0.70434003323317
scalar Network.dyn_peer[375] 	lookupHopsSig:mean 	17
scalar Network.dyn_peer[376] 	lookupTimeSig:mean 	4.05
scalar Network.dyn_peer[376] 	lookupStabilitySig:mean 	0.76737757772207
scalar Network.dyn_peer[376] 	lookupHopsSig:mean 	40
scalar Network.dyn_peer[377] 	lookupTimeSig:mean 	1.875
scalar Network.dyn_peer[377] 	lookupStabilitySig:mean 	0.80695435684174
scalar Network.dyn_peer[377] 	lookupHopsSig:mean 	18
scalar Network.dyn_peer[378] 	lookupTimeSig:mean 	1.975
scalar Network.dyn_peer[378] 	lookupStabilitySig:mean 	0.75677180080675
scalar Network.dyn_peer[378] 	lookupHopsSig:mean 	18.875
scalar Network.dyn_peer[379] 	lookupTimeSig:mean 	2.94
scalar Network.dyn_peer[379] 	lookupStabilitySig:mean 	0.84831895623356
scalar Network.dyn_peer[379] 	lookupHopsSig:mean 	28.6
scalar Network.dyn_peer[380] 	lookupTimeSig:mean 	4.2
scalar Network.dyn_peer[380] 	lookupStabilitySig:mean 	0.77373007684946
scalar Network.dyn_peer[380] 	lookupHopsSig:mean 	41.333333333333
scalar Network.dyn_peer[381] 	lookupTimeSig:mean 	1.7333333333333
scalar Network.dyn_peer[381] 	lookupStabilitySig:mean 	0.93068741437876
scalar Network.dyn_peer[381] 	lookupHopsSig:mean 	16.444444444444
scalar Network.dyn_peer[382] 	lookupTimeSig:mean 	2.06
scalar Network.dyn_peer[382] 	lookupStabilitySig:mean 	0.72790640220046
scalar Network.dyn_peer[382] 	lookupHopsSig:mean 	19.8
scalar Network.dyn_peer[383] 	lookupTimeSig:mean 	1.62
scalar Network.dyn_peer[383] 	lookupStabilitySig:mean 	0.61425352357328
scalar Network.dyn_peer[383] 	lookupHopsSig:mean 	15.4
scalar Network.dyn_peer[384] 	lookupTimeSig:mean 	2.1285714285714
scalar Network.dyn_peer[384] 	lookupStabilitySig:mean 	0.93292343190738
scalar Network.dyn_peer[384] 	lookupHopsSig:mean 	20.428571428571
scalar Network.dyn_peer[385] 	lookupTimeSig:mean 	2.1
scalar Network.dyn_peer[385] 	lookupStabilitySig:mean 	0.69234591083867
scalar Network.dyn_peer[385] 	lookupHopsSig:mean 	20.142857142857
scalar Network.dyn_peer[386] 	lookupTimeSig:mean 	2.25
scalar Network.dyn_peer[386] 	lookupStabilitySig:mean 	0.93992712680483
scalar Network.dyn_peer[386] 	lookupHopsSig:mean 	21.625
scalar Network.dyn_peer[387] 	lookupTimeSig:mean 	1.325
scalar Network.dyn_peer[387] 	lookupStabilitySig:mean 	0.45306339859962
scalar Network.dyn_peer[387] 	lookupHopsSig:mean 	12.5
scalar Network.dyn_peer[388] 	lookupTimeSig:mean 	1.8
scalar Network.dyn_peer[388] 	lookupStabilitySig:mean 	0.50334076459209
scalar Network.dyn_peer[388] 	lookupHopsSig:mean 	17.333333333333
scalar Network.dyn_peer[389] 	lookupTimeSig:mean 	1.52
scalar Network.dyn_peer[389] 	lookupStabilitySig:mean 	0.90918697770685
scalar Network.dyn_peer[389] 	lookupHopsSig:mean 	14.3
scalar Network.dyn_peer[390] 	lookupTimeSig:mean 	1.8777777777778
scalar Network.dyn_peer[390] 	lookupStabilitySig:mean 	0.93437912387566
scalar Network.dyn_peer[390] 	lookupHopsSig:mean 	17.888888888889
scalar Network.dyn_peer[391] 	lookupTimeSig:mean 	1.7714285714286
scalar Network.dyn_peer[391] 	lookupStabilitySig:mean 	0.71616025056158
scalar Network.dyn_peer[391] 	lookupHopsSig:mean 	16.857142857143
scalar Network.dyn_peer[392] 	lookupTimeSig:mean 	1.8444444444444
scalar Network.dyn_peer[392] 	lookupStabilitySig:mean 	0.88402479369607
scalar Network.dyn_peer[392] 	lookupHopsSig:mean 	17.555555555556
scalar Network.dyn_peer[393] 	lookupTimeSig:mean 	2.1
scalar Network.dyn_peer[393] 	lookupStabilitySig:mean 	0.8117112039278
scalar Network.dyn_peer[393] 	lookupHopsSig:mean 	20.333333333333
scalar Network.dyn_peer[394] 	lookupTimeSig:mean 	2.4545454545455
scalar Network.dyn_peer[394] 	lookupStabilitySig:mean 	0.95347362926061
scalar Network.dyn_peer[394] 	lookupHopsSig:mean 	23.636363636364
scalar Network.dyn_peer[395] 	lookupTimeSig:mean 	1.6375
scalar Network.dyn_peer[395] 	lookupStabilitySig:mean 	0.94866934069432
scalar Network.dyn_peer[395] 	lookupHopsSig:mean 	15.5
scalar Network.dyn_peer[396] 	lookupTimeSig:mean 	2
scalar Network.dyn_peer[396] 	lookupStabilitySig:mean 	0.91496538176822
scalar Network.dyn_peer[396] 	lookupHopsSig:mean 	19.166666666667
scalar Network.dyn_peer[397] 	lookupTimeSig:mean 	1.7
scalar Network.dyn_peer[397] 	lookupStabilitySig:mean 	0.026595741510391
scalar Network.dyn_peer[397] 	lookupHopsSig:mean 	16.5
scalar Network.dyn_peer[398] 	lookupTimeSig:mean 	1.5333333333333
scalar Network.dyn_peer[398] 	lookupStabilitySig:mean 	0.94536287240529
scalar Network.dyn_peer[398] 	lookupHopsSig:mean 	14.416666666667
scalar Network.dyn_peer[399] 	lookupTimeSig:mean 	4
scalar Network.dyn_peer[399] 	lookupStabilitySig:mean 	0.57509563863277
scalar Network.dyn_peer[399] 	lookupHopsSig:mean 	39.5
scalar Network.dyn_peer[400] 	lookupTimeSig:mean 	2.6333333333333
scalar Network.dyn_peer[400] 	lookupStabilitySig:mean 	0.87555364985019
scalar Network.dyn_peer[400] 	lookupHopsSig:mean 	25.666666666667
scalar Network.dyn_peer[401] 	lookupTimeSig:mean 	1.9142857142857
scalar Network.dyn_peer[401] 	lookupStabilitySig:mean 	0.94811632520785
scalar Network.dyn_peer[401] 	lookupHopsSig:mean 	18.214285714286
scalar Network.dyn_peer[402] 	lookupTimeSig:mean 	3.0666666666667
scalar Network.dyn_peer[402] 	lookupStabilitySig:mean 	0.82653525223335
scalar Network.dyn_peer[402] 	lookupHopsSig:mean 	30
scalar Network.dyn_peer[403] 	lookupTimeSig:mean 	1.8857142857143
scalar Network.dyn_peer[403] 	lookupStabilitySig:mean 	0.9704170551018
scalar Network.dyn_peer[403] 	lookupHopsSig:mean 	17.928571428571
scalar Network.dyn_peer[404] 	lookupTimeSig:mean 	1.5333333333333
scalar Network.dyn_peer[404] 	lookupStabilitySig:mean 	0.78315714498361
scalar Network.dyn_peer[404] 	lookupHopsSig:mean 	14.666666666667
scalar Network.dyn_peer[405] 	lookupTimeSig:mean 	3.3333333333333
scalar Network.dyn_peer[405] 	lookupStabilitySig:mean 	0.69427900761366
scalar Network.dyn_peer[405] 	lookupHopsSig:mean 	32.666666666667
scalar Network.dyn_peer[406] 	lookupTimeSig:mean 	3.4333333333333
scalar Network.dyn_peer[406] 	lookupStabilitySig:mean 	0.8525080482165
scalar Network.dyn_peer[406] 	lookupHopsSig:mean 	33.666666666667
scalar Network.dyn_peer[407] 	lookupTimeSig:mean 	1.22
scalar Network.dyn_peer[407] 	lookupStabilitySig:mean 	0.73013787036762
scalar Network.dyn_peer[407] 	lookupHopsSig:mean 	11.3
scalar Network.dyn_peer[408] 	lookupTimeSig:mean 	2.05
scalar Network.dyn_peer[408] 	lookupStabilitySig:mean 	0.63901495561004
scalar Network.dyn_peer[408] 	lookupHopsSig:mean 	19.75
scalar Network.dyn_peer[409] 	lookupTimeSig:mean 	3.5666666666667
scalar Network.dyn_peer[409] 	lookupStabilitySig:mean 	0.85930966896315
scalar Network.dyn_peer[409] 	lookupHopsSig:mean 	35
scalar Network.dyn_peer[410] 	lookupTimeSig:mean 	2.4
scalar Network.dyn_peer[410] 	lookupStabilitySig:mean 	0.72254841774702
scalar Network.dyn_peer[410] 	lookupHopsSig:mean 	23.333333333333
scalar Network.dyn_peer[411] 	lookupTimeSig:mean 	2.46
scalar Network.dyn_peer[411] 	lookupStabilitySig:mean 	0.69073620270938
scalar Network.dyn_peer[411] 	lookupHopsSig:mean 	23.8
scalar Network.dyn_peer[412] 	lookupTimeSig:mean 	1.7444444444444
scalar Network.dyn_peer[412] 	lookupStabilitySig:mean 	0.79455545896457
scalar Network.dyn_peer[412] 	lookupHopsSig:mean 	16.555555555556
scalar Network.dyn_peer[413] 	lookupTimeSig:mean 	2.1142857142857
scalar Network.dyn_peer[413] 	lookupStabilitySig:mean 	0.76674127179597
scalar Network.dyn_peer[413] 	lookupHopsSig:mean 	20.285714285714
scalar Network.dyn_peer[414] 	lookupTimeSig:mean 	1.7066666666667
scalar Network.dyn_peer[414] 	lookupStabilitySig:mean 	0.95743461664145
scalar Network.dyn_peer[414] 	lookupHopsSig:mean 	16.133333333333
scalar Network.dyn_peer[415] 	lookupTimeSig:mean 	2.325
scalar Network.dyn_peer[415] 	lookupStabilitySig:mean 	0.8356864831876
scalar Network.dyn_peer[415] 	lookupHopsSig:mean 	22.5
scalar Network.dyn_peer[416] 	lookupTimeSig:mean 	2
scalar Network.dyn_peer[416] 	lookupStabilitySig:mean 	0.39167275528113
scalar Network.dyn_peer[416] 	lookupHopsSig:mean 	19.333333333333
scalar Network.dyn_peer[417] 	lookupTimeSig:mean 	3.0571428571429
scalar Network.dyn_peer[417] 	lookupStabilitySig:mean 	0.95652535211827
scalar Network.dyn_peer[417] 	lookupHopsSig:mean 	29.714285714286
scalar Network.dyn_peer[418] 	lookupTimeSig:mean 	1.5076923076923
scalar Network.dyn_peer[418] 	lookupStabilitySig:mean 	0.82027924358128
scalar Network.dyn_peer[418] 	lookupHopsSig:mean 	14.153846153846
scalar Network.dyn_peer[419] 	lookupTimeSig:mean 	2.475
scalar Network.dyn_peer[419] 	lookupStabilitySig:mean 	0.50875628367066
scalar Network.dyn_peer[419] 	lookupHopsSig:mean 	24
scalar Network.dyn_peer[420] 	lookupTimeSig:mean 	2.1
scalar Network.dyn_peer[420] 	lookupStabilitySig:mean 	0.74550326541066
scalar Network.dyn_peer[420] 	lookupHopsSig:mean 	20.333333333333
scalar Network.dyn_peer[421] 	lookupTimeSig:mean 	2.26
scalar Network.dyn_peer[421] 	lookupStabilitySig:mean 	0.8103462100029
[...]
scalar Network.dyn_peer[895] 	lookupStabilitySig:mean 	0.61131993122399
scalar Network.dyn_peer[895] 	lookupHopsSig:mean 	22.75
scalar Network.dyn_peer[896] 	lookupTimeSig:mean 	0.92857142857143
scalar Network.dyn_peer[896] 	lookupStabilitySig:mean 	0.76237850157278
scalar Network.dyn_peer[896] 	lookupHopsSig:mean 	8.4285714285714
scalar Network.dyn_peer[897] 	lookupTimeSig:mean 	0.73333333333333
scalar Network.dyn_peer[897] 	lookupStabilitySig:mean 	0.44541061917941
scalar Network.dyn_peer[897] 	lookupHopsSig:mean 	6.6666666666667
scalar Network.dyn_peer[898] 	lookupTimeSig:mean 	1.7166666666667
scalar Network.dyn_peer[898] 	lookupStabilitySig:mean 	0.86540013815587
scalar Network.dyn_peer[898] 	lookupHopsSig:mean 	16.333333333333
scalar Network.dyn_peer[899] 	lookupTimeSig:mean 	3.3428571428571
scalar Network.dyn_peer[899] 	lookupStabilitySig:mean 	0.93762330551233
scalar Network.dyn_peer[899] 	lookupHopsSig:mean 	32.571428571429
scalar Network.dyn_peer[900] 	lookupTimeSig:mean 	2.7666666666667
scalar Network.dyn_peer[900] 	lookupStabilitySig:mean 	0.48141564925512
scalar Network.dyn_peer[900] 	lookupHopsSig:mean 	27
scalar Network.dyn_peer[901] 	lookupTimeSig:mean 	1.375
scalar Network.dyn_peer[901] 	lookupStabilitySig:mean 	0.80633304652292
scalar Network.dyn_peer[901] 	lookupHopsSig:mean 	12.875
scalar Network.dyn_peer[902] 	lookupTimeSig:mean 	1.6666666666667
scalar Network.dyn_peer[902] 	lookupStabilitySig:mean 	0.91697532880223
scalar Network.dyn_peer[902] 	lookupHopsSig:mean 	15.777777777778
scalar Network.dyn_peer[903] 	lookupTimeSig:mean 	1.4
scalar Network.dyn_peer[903] 	lookupStabilitySig:mean 	0.31534090638161
scalar Network.dyn_peer[903] 	lookupHopsSig:mean 	13.5
scalar Network.dyn_peer[904] 	lookupTimeSig:mean 	2.0666666666667
scalar Network.dyn_peer[904] 	lookupStabilitySig:mean 	0.82982903237765
scalar Network.dyn_peer[904] 	lookupHopsSig:mean 	19.833333333333
scalar Network.dyn_peer[905] 	lookupTimeSig:mean 	1.8
scalar Network.dyn_peer[905] 	lookupStabilitySig:mean 	0.92368794139475
scalar Network.dyn_peer[905] 	lookupHopsSig:mean 	17.090909090909
scalar Network.dyn_peer[906] 	lookupTimeSig:mean 	2.35
scalar Network.dyn_peer[906] 	lookupStabilitySig:mean 	0.90446968609467
scalar Network.dyn_peer[906] 	lookupHopsSig:mean 	22.75
scalar Network.dyn_peer[907] 	lookupTimeSig:mean 	1.6833333333333
scalar Network.dyn_peer[907] 	lookupStabilitySig:mean 	0.8786318631998
scalar Network.dyn_peer[907] 	lookupHopsSig:mean 	15.916666666667
scalar Network.dyn_peer[908] 	lookupTimeSig:mean 	2.92
scalar Network.dyn_peer[908] 	lookupStabilitySig:mean 	0.8775311300531
scalar Network.dyn_peer[908] 	lookupHopsSig:mean 	28.4
scalar Network.dyn_peer[909] 	lookupTimeSig:mean 	2.1833333333333
scalar Network.dyn_peer[909] 	lookupStabilitySig:mean 	0.78331858105958
scalar Network.dyn_peer[909] 	lookupHopsSig:mean 	21
scalar Network.dyn_peer[910] 	lookupTimeSig:mean 	1.66
scalar Network.dyn_peer[910] 	lookupStabilitySig:mean 	0.90360269108787
scalar Network.dyn_peer[910] 	lookupHopsSig:mean 	15.7
scalar Network.dyn_peer[911] 	lookupTimeSig:mean 	2.8333333333333
scalar Network.dyn_peer[911] 	lookupStabilitySig:mean 	0.70388105760018
scalar Network.dyn_peer[911] 	lookupHopsSig:mean 	27.666666666667
scalar Network.dyn_peer[912] 	lookupTimeSig:mean 	1.75
scalar Network.dyn_peer[912] 	lookupStabilitySig:mean 	0.8936393652577
scalar Network.dyn_peer[912] 	lookupHopsSig:mean 	16.6
scalar Network.dyn_peer[913] 	lookupTimeSig:mean 	1.7
scalar Network.dyn_peer[913] 	lookupStabilitySig:mean 	0.66714742593467
scalar Network.dyn_peer[913] 	lookupHopsSig:mean 	16.5
scalar Network.dyn_peer[914] 	lookupTimeSig:mean 	1.38
scalar Network.dyn_peer[914] 	lookupStabilitySig:mean 	0.83848050385714
scalar Network.dyn_peer[914] 	lookupHopsSig:mean 	13
scalar Network.dyn_peer[915] 	lookupTimeSig:mean 	1.4181818181818
scalar Network.dyn_peer[915] 	lookupStabilitySig:mean 	0.96029676099054
scalar Network.dyn_peer[915] 	lookupHopsSig:mean 	13.272727272727
scalar Network.dyn_peer[916] 	lookupTimeSig:mean 	1.35
scalar Network.dyn_peer[916] 	lookupStabilitySig:mean 	0.93304572030902
scalar Network.dyn_peer[916] 	lookupHopsSig:mean 	12.6
scalar Network.dyn_peer[917] 	lookupTimeSig:mean 	2.4
scalar Network.dyn_peer[917] 	lookupStabilitySig:mean 	0.50797443588575
scalar Network.dyn_peer[917] 	lookupHopsSig:mean 	23.333333333333
scalar Network.dyn_peer[918] 	lookupTimeSig:mean 	1.85
scalar Network.dyn_peer[918] 	lookupStabilitySig:mean 	0.35249039530754
scalar Network.dyn_peer[918] 	lookupHopsSig:mean 	18
scalar Network.dyn_peer[919] 	lookupTimeSig:mean 	1.65
scalar Network.dyn_peer[919] 	lookupStabilitySig:mean 	0.66008442640305
scalar Network.dyn_peer[919] 	lookupHopsSig:mean 	15.75
scalar Network.dyn_peer[920] 	lookupTimeSig:mean 	2.25
scalar Network.dyn_peer[920] 	lookupStabilitySig:mean 	0.63041125237942
scalar Network.dyn_peer[920] 	lookupHopsSig:mean 	22
scalar Network.dyn_peer[921] 	lookupTimeSig:mean 	1.9285714285714
scalar Network.dyn_peer[921] 	lookupStabilitySig:mean 	0.90975741789277
scalar Network.dyn_peer[921] 	lookupHopsSig:mean 	18.428571428571
scalar Network.dyn_peer[922] 	lookupTimeSig:mean 	2.3666666666667
scalar Network.dyn_peer[922] 	lookupStabilitySig:mean 	0.62720867494742
scalar Network.dyn_peer[922] 	lookupHopsSig:mean 	23
scalar Network.dyn_peer[923] 	lookupTimeSig:mean 	4.55
scalar Network.dyn_peer[923] 	lookupStabilitySig:mean 	0.82376478612423
scalar Network.dyn_peer[923] 	lookupHopsSig:mean 	45
scalar Network.dyn_peer[924] 	lookupTimeSig:mean 	1.5625
scalar Network.dyn_peer[924] 	lookupStabilitySig:mean 	0.9668411489256
scalar Network.dyn_peer[924] 	lookupHopsSig:mean 	14.6875
scalar Network.dyn_peer[925] 	lookupTimeSig:mean 	1.475
scalar Network.dyn_peer[925] 	lookupStabilitySig:mean 	0.82648908765987
scalar Network.dyn_peer[925] 	lookupHopsSig:mean 	14
scalar Network.dyn_peer[926] 	lookupTimeSig:mean 	1.56
scalar Network.dyn_peer[926] 	lookupStabilitySig:mean 	0.86288666483015
scalar Network.dyn_peer[926] 	lookupHopsSig:mean 	14.8
scalar Network.dyn_peer[927] 	lookupTimeSig:mean 	1.3
scalar Network.dyn_peer[927] 	lookupStabilitySig:mean 	0.82244732106725
scalar Network.dyn_peer[927] 	lookupHopsSig:mean 	12.166666666667
scalar Network.dyn_peer[928] 	lookupTimeSig:mean 	3
scalar Network.dyn_peer[928] 	lookupStabilitySig:mean 	0.62564189483722
scalar Network.dyn_peer[928] 	lookupHopsSig:mean 	29.333333333333
scalar Network.dyn_peer[929] 	lookupTimeSig:mean 	1.86
scalar Network.dyn_peer[929] 	lookupStabilitySig:mean 	0.80876400619745
scalar Network.dyn_peer[929] 	lookupHopsSig:mean 	17.8
scalar Network.dyn_peer[930] 	lookupTimeSig:mean 	3.2
scalar Network.dyn_peer[930] 	lookupStabilitySig:mean 	0.7635289678971
scalar Network.dyn_peer[930] 	lookupHopsSig:mean 	31.333333333333
scalar Network.dyn_peer[931] 	lookupTimeSig:mean 	2.2
scalar Network.dyn_peer[931] 	lookupStabilitySig:mean 	0.80065729655325
scalar Network.dyn_peer[931] 	lookupHopsSig:mean 	21.25
scalar Network.dyn_peer[932] 	lookupTimeSig:mean 	0.95
scalar Network.dyn_peer[932] 	lookupStabilitySig:mean 	0.63443694263697
scalar Network.dyn_peer[932] 	lookupHopsSig:mean 	8.75
scalar Network.dyn_peer[933] 	lookupTimeSig:mean 	1.4571428571429
scalar Network.dyn_peer[933] 	lookupStabilitySig:mean 	0.96302302717231
scalar Network.dyn_peer[933] 	lookupHopsSig:mean 	13.642857142857
scalar Network.dyn_peer[934] 	lookupTimeSig:mean 	1.8
scalar Network.dyn_peer[934] 	lookupStabilitySig:mean 	0.53050807615121
scalar Network.dyn_peer[934] 	lookupHopsSig:mean 	17.333333333333
scalar Network.dyn_peer[935] 	lookupTimeSig:mean 	2.225
scalar Network.dyn_peer[935] 	lookupStabilitySig:mean 	0.62476535327733
scalar Network.dyn_peer[935] 	lookupHopsSig:mean 	21.5
scalar Network.dyn_peer[936] 	lookupTimeSig:mean 	1.9285714285714
scalar Network.dyn_peer[936] 	lookupStabilitySig:mean 	0.93352989679469
scalar Network.dyn_peer[936] 	lookupHopsSig:mean 	18.428571428571
scalar Network.dyn_peer[937] 	lookupTimeSig:mean 	1.4333333333333
scalar Network.dyn_peer[937] 	lookupStabilitySig:mean 	0.74801803038766
scalar Network.dyn_peer[937] 	lookupHopsSig:mean 	13.5
scalar Network.dyn_peer[938] 	lookupTimeSig:mean 	1.1
scalar Network.dyn_peer[938] 	lookupStabilitySig:mean 	0.57969960942864
scalar Network.dyn_peer[938] 	lookupHopsSig:mean 	10.25
scalar Network.dyn_peer[939] 	lookupTimeSig:mean 	1.7333333333333
scalar Network.dyn_peer[939] 	lookupStabilitySig:mean 	0.87243378565957
scalar Network.dyn_peer[939] 	lookupHopsSig:mean 	16.5
scalar Network.dyn_peer[940] 	lookupTimeSig:mean 	2.25
scalar Network.dyn_peer[940] 	lookupStabilitySig:mean 	0.93066434198408
scalar Network.dyn_peer[940] 	lookupHopsSig:mean 	21.625
scalar Network.dyn_peer[941] 	lookupTimeSig:mean 	1.2666666666667
scalar Network.dyn_peer[941] 	lookupStabilitySig:mean 	0.53749999900659
scalar Network.dyn_peer[941] 	lookupHopsSig:mean 	12
scalar Network.dyn_peer[942] 	lookupTimeSig:mean 	2.025
scalar Network.dyn_peer[942] 	lookupStabilitySig:mean 	0.61585760721937
scalar Network.dyn_peer[942] 	lookupHopsSig:mean 	19.5
scalar Network.dyn_peer[943] 	lookupTimeSig:mean 	3.1666666666667
scalar Network.dyn_peer[943] 	lookupStabilitySig:mean 	0.64155053098996
scalar Network.dyn_peer[943] 	lookupHopsSig:mean 	31
scalar Network.dyn_peer[944] 	lookupTimeSig:mean 	1.825
scalar Network.dyn_peer[944] 	lookupStabilitySig:mean 	0.91453819640446
scalar Network.dyn_peer[944] 	lookupHopsSig:mean 	17.375
scalar Network.dyn_peer[945] 	lookupTimeSig:mean 	2
scalar Network.dyn_peer[945] 	lookupStabilitySig:mean 	0.75821442529559
scalar Network.dyn_peer[945] 	lookupHopsSig:mean 	19.166666666667
scalar Network.dyn_peer[946] 	lookupTimeSig:mean 	4.45
scalar Network.dyn_peer[946] 	lookupStabilitySig:mean 	0.62381295859814
scalar Network.dyn_peer[946] 	lookupHopsSig:mean 	44
scalar Network.dyn_peer[947] 	lookupTimeSig:mean 	1.375
scalar Network.dyn_peer[947] 	lookupStabilitySig:mean 	0.8957571645733
scalar Network.dyn_peer[947] 	lookupHopsSig:mean 	12.875
scalar Network.dyn_peer[948] 	lookupTimeSig:mean 	2.9333333333333
scalar Network.dyn_peer[948] 	lookupStabilitySig:mean 	0.79680712272724
scalar Network.dyn_peer[948] 	lookupHopsSig:mean 	28.666666666667
scalar Network.dyn_peer[949] 	lookupTimeSig:mean 	2.3777777777778
scalar Network.dyn_peer[949] 	lookupStabilitySig:mean 	0.90383417862985
scalar Network.dyn_peer[949] 	lookupHopsSig:mean 	22.888888888889
scalar Network.dyn_peer[950] 	lookupTimeSig:mean 	2.9
scalar Network.dyn_peer[950] 	lookupStabilitySig:mean 	0.43801511079073
scalar Network.dyn_peer[950] 	lookupHopsSig:mean 	28.5
scalar Network.dyn_peer[951] 	lookupTimeSig:mean 	2.2916666666667
scalar Network.dyn_peer[951] 	lookupStabilitySig:mean 	0.96298287265624
scalar Network.dyn_peer[951] 	lookupHopsSig:mean 	22
scalar Network.dyn_peer[952] 	lookupTimeSig:mean 	1.0833333333333
scalar Network.dyn_peer[952] 	lookupStabilitySig:mean 	0.85308612200121
scalar Network.dyn_peer[952] 	lookupHopsSig:mean 	10
scalar Network.dyn_peer[953] 	lookupTimeSig:mean 	1.6666666666667
scalar Network.dyn_peer[953] 	lookupStabilitySig:mean 	0.95911940272587
scalar Network.dyn_peer[953] 	lookupHopsSig:mean 	15.75
scalar Network.dyn_peer[954] 	lookupTimeSig:mean 	1.68
scalar Network.dyn_peer[954] 	lookupStabilitySig:mean 	0.83286082502455
scalar Network.dyn_peer[954] 	lookupHopsSig:mean 	16
scalar Network.dyn_peer[955] 	lookupTimeSig:mean 	1.7909090909091
scalar Network.dyn_peer[955] 	lookupStabilitySig:mean 	0.91291128433394
scalar Network.dyn_peer[955] 	lookupHopsSig:mean 	17
scalar Network.dyn_peer[956] 	lookupTimeSig:mean 	1.8111111111111
scalar Network.dyn_peer[956] 	lookupStabilitySig:mean 	0.95878251416919
scalar Network.dyn_peer[956] 	lookupHopsSig:mean 	17.222222222222
scalar Network.dyn_peer[957] 	lookupTimeSig:mean 	2.275
scalar Network.dyn_peer[957] 	lookupStabilitySig:mean 	0.83498655818403
scalar Network.dyn_peer[957] 	lookupHopsSig:mean 	22
scalar Network.dyn_peer[958] 	lookupTimeSig:mean 	2.1583333333333
scalar Network.dyn_peer[958] 	lookupStabilitySig:mean 	0.88600371746967
scalar Network.dyn_peer[958] 	lookupHopsSig:mean 	20.666666666667
scalar Network.dyn_peer[959] 	lookupTimeSig:mean 	2.1666666666667
scalar Network.dyn_peer[959] 	lookupStabilitySig:mean 	0.50490774214268
scalar Network.dyn_peer[959] 	lookupHopsSig:mean 	21
scalar Network.dyn_peer[960] 	lookupTimeSig:mean 	1.175
scalar Network.dyn_peer[960] 	lookupStabilitySig:mean 	0.9157369727036
scalar Network.dyn_peer[960] 	lookupHopsSig:mean 	10.875
scalar Network.dyn_peer[961] 	lookupTimeSig:mean 	2.025
scalar Network.dyn_peer[961] 	lookupStabilitySig:mean 	0.8770266212523
scalar Network.dyn_peer[961] 	lookupHopsSig:mean 	19.5
scalar Network.dyn_peer[962] 	lookupTimeSig:mean 	1.5714285714286
scalar Network.dyn_peer[962] 	lookupStabilitySig:mean 	0.77399508761508
scalar Network.dyn_peer[962] 	lookupHopsSig:mean 	14.857142857143
scalar Network.dyn_peer[963] 	lookupTimeSig:mean 	1.125
scalar Network.dyn_peer[963] 	lookupStabilitySig:mean 	0.63509670086205
scalar Network.dyn_peer[963] 	lookupHopsSig:mean 	10.5
scalar Network.dyn_peer[964] 	lookupTimeSig:mean 	2.3916666666667
scalar Network.dyn_peer[964] 	lookupStabilitySig:mean 	0.96182053152006
scalar Network.dyn_peer[964] 	lookupHopsSig:mean 	23
scalar Network.dyn_peer[965] 	lookupTimeSig:mean 	2.3333333333333
scalar Network.dyn_peer[965] 	lookupStabilitySig:mean 	0.8518076899151
scalar Network.dyn_peer[965] 	lookupHopsSig:mean 	22.666666666667
scalar Network.dyn_peer[966] 	lookupTimeSig:mean 	2
scalar Network.dyn_peer[966] 	lookupStabilitySig:mean 	0.87893716394901
scalar Network.dyn_peer[966] 	lookupHopsSig:mean 	19.2
scalar Network.dyn_peer[967] 	lookupTimeSig:mean 	2.625
scalar Network.dyn_peer[967] 	lookupStabilitySig:mean 	0.68173242360353
scalar Network.dyn_peer[967] 	lookupHopsSig:mean 	25.5
scalar Network.dyn_peer[968] 	lookupTimeSig:mean 	2.1571428571429
scalar Network.dyn_peer[968] 	lookupStabilitySig:mean 	0.93660435320011
scalar Network.dyn_peer[968] 	lookupHopsSig:mean 	20.714285714286
scalar Network.dyn_peer[969] 	lookupTimeSig:mean 	1.825
scalar Network.dyn_peer[969] 	lookupStabilitySig:mean 	0.63928276253864
scalar Network.dyn_peer[969] 	lookupHopsSig:mean 	17.5
scalar Network.dyn_peer[970] 	lookupTimeSig:mean 	2.7666666666667
scalar Network.dyn_peer[970] 	lookupStabilitySig:mean 	0.60055165489515
scalar Network.dyn_peer[970] 	lookupHopsSig:mean 	27
scalar Network.dyn_peer[971] 	lookupTimeSig:mean 	1.7888888888889
scalar Network.dyn_peer[971] 	lookupStabilitySig:mean 	0.94288011609266
scalar Network.dyn_peer[971] 	lookupHopsSig:mean 	17
scalar Network.dyn_peer[972] 	lookupTimeSig:mean 	1.625
scalar Network.dyn_peer[972] 	lookupStabilitySig:mean 	0.90033944859169
scalar Network.dyn_peer[972] 	lookupHopsSig:mean 	15.375
scalar Network.dyn_peer[973] 	lookupTimeSig:mean 	1.9666666666667
scalar Network.dyn_peer[973] 	lookupStabilitySig:mean 	0.8730187760666
scalar Network.dyn_peer[973] 	lookupHopsSig:mean 	18.833333333333
scalar Network.dyn_peer[974] 	lookupTimeSig:mean 	1.6333333333333
scalar Network.dyn_peer[974] 	lookupStabilitySig:mean 	0.73120935882131
scalar Network.dyn_peer[974] 	lookupHopsSig:mean 	15.666666666667
scalar Network.dyn_peer[975] 	lookupTimeSig:mean 	1.2714285714286
scalar Network.dyn_peer[975] 	lookupStabilitySig:mean 	0.79664466104337
scalar Network.dyn_peer[975] 	lookupHopsSig:mean 	11.857142857143
scalar Network.dyn_peer[976] 	lookupTimeSig:mean 	4.45
scalar Network.dyn_peer[976] 	lookupStabilitySig:mean 	0.80439567565918
scalar Network.dyn_peer[976] 	lookupHopsSig:mean 	44
scalar Network.dyn_peer[977] 	lookupTimeSig:mean 	1.75
scalar Network.dyn_peer[977] 	lookupStabilitySig:mean 	0.84549671877176
scalar Network.dyn_peer[977] 	lookupHopsSig:mean 	16.666666666667
scalar Network.dyn_peer[978] 	lookupTimeSig:mean 	2.85
scalar Network.dyn_peer[978] 	lookupStabilitySig:mean 	0.790224108845
scalar Network.dyn_peer[978] 	lookupHopsSig:mean 	28
scalar Network.dyn_peer[979] 	lookupTimeSig:mean 	2.9
scalar Network.dyn_peer[979] 	lookupStabilitySig:mean 	0.90764407515526
scalar Network.dyn_peer[979] 	lookupHopsSig:mean 	28.2
scalar Network.dyn_peer[980] 	lookupTimeSig:mean 	3.1333333333333
scalar Network.dyn_peer[980] 	lookupStabilitySig:mean 	0.52780870596568
scalar Network.dyn_peer[980] 	lookupHopsSig:mean 	30.666666666667
scalar Network.dyn_peer[981] 	lookupTimeSig:mean 	1.58
scalar Network.dyn_peer[981] 	lookupStabilitySig:mean 	0.93955449117348
scalar Network.dyn_peer[981] 	lookupHopsSig:mean 	14.9
scalar Network.dyn_peer[982] 	lookupTimeSig:mean 	1.25
scalar Network.dyn_peer[982] 	lookupStabilitySig:mean 	0.73472733702511
scalar Network.dyn_peer[982] 	lookupHopsSig:mean 	11.75
scalar Network.dyn_peer[983] 	lookupTimeSig:mean 	1.75
scalar Network.dyn_peer[983] 	lookupStabilitySig:mean 	0.6206680033356
scalar Network.dyn_peer[983] 	lookupHopsSig:mean 	16.75
scalar Network.dyn_peer[984] 	lookupTimeSig:mean 	3.45
scalar Network.dyn_peer[984] 	lookupStabilitySig:mean 	0.73941562697291
scalar Network.dyn_peer[984] 	lookupHopsSig:mean 	34
scalar Network.dyn_peer[985] 	lookupTimeSig:mean 	2.22
scalar Network.dyn_peer[985] 	lookupStabilitySig:mean 	0.81830071415752
scalar Network.dyn_peer[985] 	lookupHopsSig:mean 	21.4
scalar Network.dyn_peer[986] 	lookupTimeSig:mean 	2.9
scalar Network.dyn_peer[986] 	lookupStabilitySig:mean 	0.75884277994434
scalar Network.dyn_peer[986] 	lookupHopsSig:mean 	28.333333333333
scalar Network.dyn_peer[987] 	lookupTimeSig:mean 	2.475
scalar Network.dyn_peer[987] 	lookupStabilitySig:mean 	0.66412843437865
scalar Network.dyn_peer[987] 	lookupHopsSig:mean 	24
scalar Network.dyn_peer[988] 	lookupTimeSig:mean 	1.625
scalar Network.dyn_peer[988] 	lookupStabilitySig:mean 	0.61796435527503
scalar Network.dyn_peer[988] 	lookupHopsSig:mean 	15.5
scalar Network.dyn_peer[989] 	lookupTimeSig:mean 	1.7555555555556
scalar Network.dyn_peer[989] 	lookupStabilitySig:mean 	0.84994352526135
scalar Network.dyn_peer[989] 	lookupHopsSig:mean 	16.666666666667
scalar Network.dyn_peer[990] 	lookupTimeSig:mean 	2.15
scalar Network.dyn_peer[990] 	lookupStabilitySig:mean 	0.8949576059822
scalar Network.dyn_peer[990] 	lookupHopsSig:mean 	20.75
scalar Network.dyn_peer[991] 	lookupTimeSig:mean 	3.0333333333333
scalar Network.dyn_peer[991] 	lookupStabilitySig:mean 	0.85790419951081
scalar Network.dyn_peer[991] 	lookupHopsSig:mean 	29.666666666667
scalar Network.dyn_peer[992] 	lookupTimeSig:mean 	1.5272727272727
scalar Network.dyn_peer[992] 	lookupStabilitySig:mean 	0.94133009300144
scalar Network.dyn_peer[992] 	lookupHopsSig:mean 	14.363636363636
scalar Network.dyn_peer[993] 	lookupTimeSig:mean 	1.475
scalar Network.dyn_peer[993] 	lookupStabilitySig:mean 	0.81377322645858
scalar Network.dyn_peer[993] 	lookupHopsSig:mean 	13.875
scalar Network.dyn_peer[994] 	lookupTimeSig:mean 	0.65
scalar Network.dyn_peer[994] 	lookupStabilitySig:mean 	0.66890243627131
scalar Network.dyn_peer[994] 	lookupHopsSig:mean 	5.75
scalar Network.dyn_peer[995] 	lookupTimeSig:mean 	1.34
scalar Network.dyn_peer[995] 	lookupStabilitySig:mean 	0.71012635286897
scalar Network.dyn_peer[995] 	lookupHopsSig:mean 	12.6
scalar Network.dyn_peer[996] 	lookupTimeSig:mean 	1.8090909090909
scalar Network.dyn_peer[996] 	lookupStabilitySig:mean 	0.91038261912763
scalar Network.dyn_peer[996] 	lookupHopsSig:mean 	17.181818181818
scalar Network.dyn_peer[997] 	lookupTimeSig:mean 	1.3363636363636
scalar Network.dyn_peer[997] 	lookupStabilitySig:mean 	0.91655428254638
scalar Network.dyn_peer[997] 	lookupHopsSig:mean 	12.454545454545
scalar Network.dyn_peer[998] 	lookupTimeSig:mean 	1.85
scalar Network.dyn_peer[998] 	lookupStabilitySig:mean 	0.83826812971383
scalar Network.dyn_peer[998] 	lookupHopsSig:mean 	17.6
scalar Network.dyn_peer[999] 	lookupTimeSig:mean 	1.8
scalar Network.dyn_peer[999] 	lookupStabilitySig:mean 	0.79270277358592
scalar Network.dyn_peer[999] 	lookupHopsSig:mean 	17.2
scalar Network.churner 	inGoingSizeSig:mean 	498.83016983017
