version 2
run Stability2-314-20130526-00:54:59-26640
attr configname Stability2
attr datetime 20130526-00:54:59
attr experiment Stability2
attr inifile omnetpp.ini
attr iterationvars $0=1000
attr iterationvars2 "$0=1000, $repetition=14"
attr measurement $0=1000
attr network Network
attr processid 26640
attr repetition 14
attr replication #14
attr resultdir results
attr runnumber 314
attr seedset 314

scalar Network.dyn_peer[0] 	lookupTimeSig:mean 	0.9375
scalar Network.dyn_peer[0] 	lookupStabilitySig:mean 	0.74621679983102
scalar Network.dyn_peer[0] 	lookupHopsSig:mean 	8.5
scalar Network.dyn_peer[1] 	lookupTimeSig:mean 	1.6
scalar Network.dyn_peer[1] 	lookupStabilitySig:mean 	0.39672173466533
scalar Network.dyn_peer[1] 	lookupHopsSig:mean 	15.25
scalar Network.dyn_peer[2] 	lookupTimeSig:mean 	1
scalar Network.dyn_peer[2] 	lookupStabilitySig:mean 	0.62225431328019
scalar Network.dyn_peer[2] 	lookupHopsSig:mean 	9.1666666666667
scalar Network.dyn_peer[3] 	lookupTimeSig:mean 	1.175
scalar Network.dyn_peer[3] 	lookupStabilitySig:mean 	0.40391675010324
scalar Network.dyn_peer[3] 	lookupHopsSig:mean 	11
scalar Network.dyn_peer[4] 	lookupTimeSig:mean 	2.6666666666667
scalar Network.dyn_peer[4] 	lookupStabilitySig:mean 	0.71152745683988
scalar Network.dyn_peer[4] 	lookupHopsSig:mean 	26
scalar Network.dyn_peer[5] 	lookupTimeSig:mean 	1.66
scalar Network.dyn_peer[5] 	lookupStabilitySig:mean 	0.59059223271906
scalar Network.dyn_peer[5] 	lookupHopsSig:mean 	15.8
scalar Network.dyn_peer[6] 	lookupTimeSig:mean 	1.825
scalar Network.dyn_peer[6] 	lookupStabilitySig:mean 	0.48618425056338
scalar Network.dyn_peer[6] 	lookupHopsSig:mean 	17.5
scalar Network.dyn_peer[7] 	lookupTimeSig:mean 	1.9666666666667
scalar Network.dyn_peer[7] 	lookupStabilitySig:mean 	0.45101101199786
scalar Network.dyn_peer[7] 	lookupHopsSig:mean 	19
scalar Network.dyn_peer[8] 	lookupTimeSig:mean 	2.825
scalar Network.dyn_peer[8] 	lookupStabilitySig:mean 	0.50240680575371
scalar Network.dyn_peer[8] 	lookupHopsSig:mean 	27.5
scalar Network.dyn_peer[9] 	lookupTimeSig:mean 	2.7
scalar Network.dyn_peer[9] 	lookupStabilitySig:mean 	0.83100288826972
scalar Network.dyn_peer[9] 	lookupHopsSig:mean 	26.25
scalar Network.dyn_peer[10] 	lookupTimeSig:mean 	2.04
scalar Network.dyn_peer[10] 	lookupStabilitySig:mean 	0.80111189130694
scalar Network.dyn_peer[10] 	lookupHopsSig:mean 	19.5
scalar Network.dyn_peer[11] 	lookupTimeSig:mean 	2.2
scalar Network.dyn_peer[11] 	lookupStabilitySig:mean 	0.5519091617316
scalar Network.dyn_peer[11] 	lookupHopsSig:mean 	21.25
scalar Network.dyn_peer[12] 	lookupTimeSig:mean 	1.55
scalar Network.dyn_peer[12] 	lookupStabilitySig:mean 	0.44959449209273
scalar Network.dyn_peer[12] 	lookupHopsSig:mean 	14.75
scalar Network.dyn_peer[13] 	lookupTimeSig:mean 	1.5428571428571
scalar Network.dyn_peer[13] 	lookupStabilitySig:mean 	0.68221317231655
scalar Network.dyn_peer[13] 	lookupHopsSig:mean 	14.571428571429
scalar Network.dyn_peer[14] 	lookupTimeSig:mean 	1.48
scalar Network.dyn_peer[14] 	lookupStabilitySig:mean 	0.58412809446454
scalar Network.dyn_peer[14] 	lookupHopsSig:mean 	14
scalar Network.dyn_peer[15] 	lookupTimeSig:mean 	1.57
scalar Network.dyn_peer[15] 	lookupStabilitySig:mean 	0.78600300671533
scalar Network.dyn_peer[15] 	lookupHopsSig:mean 	14.8
scalar Network.dyn_peer[16] 	lookupTimeSig:mean 	1.1857142857143
scalar Network.dyn_peer[16] 	lookupStabilitySig:mean 	0.76015244597303
scalar Network.dyn_peer[16] 	lookupHopsSig:mean 	11
scalar Network.dyn_peer[17] 	lookupTimeSig:mean 	1.7
scalar Network.dyn_peer[17] 	lookupStabilitySig:mean 	-0.09047619998455
scalar Network.dyn_peer[17] 	lookupHopsSig:mean 	16.5
scalar Network.dyn_peer[18] 	lookupTimeSig:mean 	1.3666666666667
scalar Network.dyn_peer[18] 	lookupStabilitySig:mean 	0.66718877479434
scalar Network.dyn_peer[18] 	lookupHopsSig:mean 	12.833333333333
scalar Network.dyn_peer[19] 	lookupTimeSig:mean 	2.825
scalar Network.dyn_peer[19] 	lookupStabilitySig:mean 	0.54564337525517
scalar Network.dyn_peer[19] 	lookupHopsSig:mean 	27.5
scalar Network.dyn_peer[20] 	lookupTimeSig:mean 	2.175
scalar Network.dyn_peer[20] 	lookupStabilitySig:mean 	0.84272985346615
scalar Network.dyn_peer[20] 	lookupHopsSig:mean 	21
scalar Network.dyn_peer[21] 	lookupTimeSig:mean 	2.1857142857143
scalar Network.dyn_peer[21] 	lookupStabilitySig:mean 	0.66040229717536
scalar Network.dyn_peer[21] 	lookupHopsSig:mean 	21
scalar Network.dyn_peer[22] 	lookupTimeSig:mean 	0.76666666666667
scalar Network.dyn_peer[22] 	lookupStabilitySig:mean 	0.28787879149119
scalar Network.dyn_peer[22] 	lookupHopsSig:mean 	7
scalar Network.dyn_peer[23] 	lookupTimeSig:mean 	1.9714285714286
scalar Network.dyn_peer[23] 	lookupStabilitySig:mean 	0.88972778911037
scalar Network.dyn_peer[23] 	lookupHopsSig:mean 	18.857142857143
scalar Network.dyn_peer[24] 	lookupTimeSig:mean 	2.0833333333333
scalar Network.dyn_peer[24] 	lookupStabilitySig:mean 	0.75498129054904
scalar Network.dyn_peer[24] 	lookupHopsSig:mean 	20
scalar Network.dyn_peer[25] 	lookupTimeSig:mean 	2.1625
scalar Network.dyn_peer[25] 	lookupStabilitySig:mean 	0.89981403783895
scalar Network.dyn_peer[25] 	lookupHopsSig:mean 	20.75
scalar Network.dyn_peer[26] 	lookupTimeSig:mean 	1.74
scalar Network.dyn_peer[26] 	lookupStabilitySig:mean 	0.48020356148481
scalar Network.dyn_peer[26] 	lookupHopsSig:mean 	16.6
scalar Network.dyn_peer[27] 	lookupTimeSig:mean 	1.1166666666667
scalar Network.dyn_peer[27] 	lookupStabilitySig:mean 	0.53562229219824
scalar Network.dyn_peer[27] 	lookupHopsSig:mean 	10.333333333333
scalar Network.dyn_peer[28] 	lookupTimeSig:mean 	1.6
scalar Network.dyn_peer[28] 	lookupStabilitySig:mean 	0.72265888005495
scalar Network.dyn_peer[28] 	lookupHopsSig:mean 	15.25
scalar Network.dyn_peer[29] 	lookupTimeSig:mean 	2.175
scalar Network.dyn_peer[29] 	lookupStabilitySig:mean 	0.56056421250105
scalar Network.dyn_peer[29] 	lookupHopsSig:mean 	21
scalar Network.dyn_peer[30] 	lookupTimeSig:mean 	1.9166666666667
scalar Network.dyn_peer[30] 	lookupStabilitySig:mean 	0.77162588791301
scalar Network.dyn_peer[30] 	lookupHopsSig:mean 	18.333333333333
scalar Network.dyn_peer[31] 	lookupTimeSig:mean 	1.7333333333333
scalar Network.dyn_peer[31] 	lookupStabilitySig:mean 	0.73086627696951
scalar Network.dyn_peer[31] 	lookupHopsSig:mean 	16.444444444444
scalar Network.dyn_peer[32] 	lookupTimeSig:mean 	2.26
scalar Network.dyn_peer[32] 	lookupStabilitySig:mean 	0.8293438218534
scalar Network.dyn_peer[32] 	lookupHopsSig:mean 	21.8
scalar Network.dyn_peer[33] 	lookupTimeSig:mean 	1.5857142857143
scalar Network.dyn_peer[33] 	lookupStabilitySig:mean 	0.67356090500419
scalar Network.dyn_peer[33] 	lookupHopsSig:mean 	15
scalar Network.dyn_peer[34] 	lookupTimeSig:mean 	1.575
scalar Network.dyn_peer[34] 	lookupStabilitySig:mean 	0.52571427635849
scalar Network.dyn_peer[34] 	lookupHopsSig:mean 	15
scalar Network.dyn_peer[35] 	lookupTimeSig:mean 	3.64
scalar Network.dyn_peer[35] 	lookupStabilitySig:mean 	0.94828700628132
scalar Network.dyn_peer[35] 	lookupHopsSig:mean 	35.6
scalar Network.dyn_peer[36] 	lookupTimeSig:mean 	1.925
scalar Network.dyn_peer[36] 	lookupStabilitySig:mean 	0.92119548807386
scalar Network.dyn_peer[36] 	lookupHopsSig:mean 	18.375
scalar Network.dyn_peer[37] 	lookupTimeSig:mean 	3.4333333333333
scalar Network.dyn_peer[37] 	lookupStabilitySig:mean 	0.33834863454103
scalar Network.dyn_peer[37] 	lookupHopsSig:mean 	33.666666666667
scalar Network.dyn_peer[38] 	lookupTimeSig:mean 	1.3363636363636
scalar Network.dyn_peer[38] 	lookupStabilitySig:mean 	0.8348453217186
scalar Network.dyn_peer[38] 	lookupHopsSig:mean 	12.454545454545
scalar Network.dyn_peer[39] 	lookupTimeSig:mean 	1.94
scalar Network.dyn_peer[39] 	lookupStabilitySig:mean 	0.49487427398562
scalar Network.dyn_peer[39] 	lookupHopsSig:mean 	18.6
scalar Network.dyn_peer[40] 	lookupTimeSig:mean 	1.42
scalar Network.dyn_peer[40] 	lookupStabilitySig:mean 	0.64881940893829
scalar Network.dyn_peer[40] 	lookupHopsSig:mean 	13.4
scalar Network.dyn_peer[41] 	lookupTimeSig:mean 	3.12
scalar Network.dyn_peer[41] 	lookupStabilitySig:mean 	0.66472033858299
scalar Network.dyn_peer[41] 	lookupHopsSig:mean 	30.4
scalar Network.dyn_peer[42] 	lookupTimeSig:mean 	1
scalar Network.dyn_peer[42] 	lookupStabilitySig:mean 	0.41030465811491
scalar Network.dyn_peer[42] 	lookupHopsSig:mean 	9.25
scalar Network.dyn_peer[43] 	lookupTimeSig:mean 	1.6571428571429
scalar Network.dyn_peer[43] 	lookupStabilitySig:mean 	0.81294975270118
scalar Network.dyn_peer[43] 	lookupHopsSig:mean 	15.714285714286
scalar Network.dyn_peer[44] 	lookupTimeSig:mean 	1.5
scalar Network.dyn_peer[44] 	lookupStabilitySig:mean 	0.5755840819329
scalar Network.dyn_peer[44] 	lookupHopsSig:mean 	14.166666666667
scalar Network.dyn_peer[45] 	lookupTimeSig:mean 	1.525
scalar Network.dyn_peer[45] 	lookupStabilitySig:mean 	0.47761144675314
scalar Network.dyn_peer[45] 	lookupHopsSig:mean 	14.5
scalar Network.dyn_peer[46] 	lookupTimeSig:mean 	1.86
scalar Network.dyn_peer[46] 	lookupStabilitySig:mean 	0.80812891973183
scalar Network.dyn_peer[46] 	lookupHopsSig:mean 	17.7
scalar Network.dyn_peer[47] 	lookupTimeSig:mean 	1.2166666666667
scalar Network.dyn_peer[47] 	lookupStabilitySig:mean 	0.90394165490094
scalar Network.dyn_peer[47] 	lookupHopsSig:mean 	11.25
scalar Network.dyn_peer[48] 	lookupTimeSig:mean 	7.25
scalar Network.dyn_peer[48] 	lookupStabilitySig:mean 	0.30657996237278
scalar Network.dyn_peer[48] 	lookupHopsSig:mean 	72
scalar Network.dyn_peer[49] 	lookupTimeSig:mean 	1.3090909090909
scalar Network.dyn_peer[49] 	lookupStabilitySig:mean 	0.78223187735685
scalar Network.dyn_peer[49] 	lookupHopsSig:mean 	12.181818181818
scalar Network.dyn_peer[50] 	lookupTimeSig:mean 	1.42
scalar Network.dyn_peer[50] 	lookupStabilitySig:mean 	0.72395483478904
scalar Network.dyn_peer[50] 	lookupHopsSig:mean 	13.4
scalar Network.dyn_peer[51] 	lookupTimeSig:mean 	4.7666666666667
scalar Network.dyn_peer[51] 	lookupStabilitySig:mean 	0.89610598422587
scalar Network.dyn_peer[51] 	lookupHopsSig:mean 	47
scalar Network.dyn_peer[52] 	lookupTimeSig:mean 	1.575
scalar Network.dyn_peer[52] 	lookupStabilitySig:mean 	0.4952020123601
scalar Network.dyn_peer[52] 	lookupHopsSig:mean 	15
scalar Network.dyn_peer[53] 	lookupTimeSig:mean 	1.18
scalar Network.dyn_peer[53] 	lookupStabilitySig:mean 	0.58359739407897
scalar Network.dyn_peer[53] 	lookupHopsSig:mean 	11
scalar Network.dyn_peer[54] 	lookupTimeSig:mean 	1.9384615384615
scalar Network.dyn_peer[54] 	lookupStabilitySig:mean 	0.97043072106317
scalar Network.dyn_peer[54] 	lookupHopsSig:mean 	18.461538461538
scalar Network.dyn_peer[55] 	lookupTimeSig:mean 	2.475
scalar Network.dyn_peer[55] 	lookupStabilitySig:mean 	0.73655530693941
scalar Network.dyn_peer[55] 	lookupHopsSig:mean 	24
scalar Network.dyn_peer[56] 	lookupTimeSig:mean 	1.95
scalar Network.dyn_peer[56] 	lookupStabilitySig:mean 	0.56964286416769
scalar Network.dyn_peer[56] 	lookupHopsSig:mean 	19
scalar Network.dyn_peer[57] 	lookupTimeSig:mean 	1.0714285714286
scalar Network.dyn_peer[57] 	lookupStabilitySig:mean 	0.68357559612819
scalar Network.dyn_peer[57] 	lookupHopsSig:mean 	9.8571428571429
scalar Network.dyn_peer[58] 	lookupTimeSig:mean 	3.025
scalar Network.dyn_peer[58] 	lookupStabilitySig:mean 	0.71790308598429
scalar Network.dyn_peer[58] 	lookupHopsSig:mean 	29.5
scalar Network.dyn_peer[59] 	lookupTimeSig:mean 	1.5888888888889
scalar Network.dyn_peer[59] 	lookupStabilitySig:mean 	0.87182242671649
scalar Network.dyn_peer[59] 	lookupHopsSig:mean 	15
scalar Network.dyn_peer[60] 	lookupTimeSig:mean 	1.7666666666667
scalar Network.dyn_peer[60] 	lookupStabilitySig:mean 	0.61535712579886
scalar Network.dyn_peer[60] 	lookupHopsSig:mean 	17
scalar Network.dyn_peer[61] 	lookupTimeSig:mean 	1.125
scalar Network.dyn_peer[61] 	lookupStabilitySig:mean 	0.77122719869173
scalar Network.dyn_peer[61] 	lookupHopsSig:mean 	10.333333333333
scalar Network.dyn_peer[62] 	lookupTimeSig:mean 	1.6
scalar Network.dyn_peer[62] 	lookupStabilitySig:mean 	0.86447841342306
scalar Network.dyn_peer[62] 	lookupHopsSig:mean 	15.125
scalar Network.dyn_peer[63] 	lookupTimeSig:mean 	1.925
scalar Network.dyn_peer[63] 	lookupStabilitySig:mean 	0.87585290020797
scalar Network.dyn_peer[63] 	lookupHopsSig:mean 	18.375
scalar Network.dyn_peer[64] 	lookupTimeSig:mean 	1.5571428571429
scalar Network.dyn_peer[64] 	lookupStabilitySig:mean 	0.82462147596691
scalar Network.dyn_peer[64] 	lookupHopsSig:mean 	14.714285714286
scalar Network.dyn_peer[65] 	lookupTimeSig:mean 	2.8
scalar Network.dyn_peer[65] 	lookupStabilitySig:mean 	0.68399999290705
scalar Network.dyn_peer[65] 	lookupHopsSig:mean 	27.5
scalar Network.dyn_peer[66] 	lookupTimeSig:mean 	1.1875
scalar Network.dyn_peer[66] 	lookupStabilitySig:mean 	0.69250046892557
scalar Network.dyn_peer[66] 	lookupHopsSig:mean 	11
scalar Network.dyn_peer[67] 	lookupTimeSig:mean 	1.9
scalar Network.dyn_peer[67] 	lookupStabilitySig:mean 	0.92017449892592
scalar Network.dyn_peer[67] 	lookupHopsSig:mean 	18.125
scalar Network.dyn_peer[68] 	lookupTimeSig:mean 	1.5333333333333
scalar Network.dyn_peer[68] 	lookupStabilitySig:mean 	0.69344848208129
scalar Network.dyn_peer[68] 	lookupHopsSig:mean 	14.5
scalar Network.dyn_peer[69] 	lookupTimeSig:mean 	2
scalar Network.dyn_peer[69] 	lookupStabilitySig:mean 	0.1380952000618
scalar Network.dyn_peer[69] 	lookupHopsSig:mean 	19.5
scalar Network.dyn_peer[70] 	lookupTimeSig:mean 	1.64
scalar Network.dyn_peer[70] 	lookupStabilitySig:mean 	0.57497520148754
scalar Network.dyn_peer[70] 	lookupHopsSig:mean 	15.6
scalar Network.dyn_peer[71] 	lookupTimeSig:mean 	1.475
scalar Network.dyn_peer[71] 	lookupStabilitySig:mean 	0.43674682453275
scalar Network.dyn_peer[71] 	lookupHopsSig:mean 	14
scalar Network.dyn_peer[72] 	lookupTimeSig:mean 	1.58
scalar Network.dyn_peer[72] 	lookupStabilitySig:mean 	0.66398010626435
scalar Network.dyn_peer[72] 	lookupHopsSig:mean 	15
scalar Network.dyn_peer[73] 	lookupTimeSig:mean 	1.72
scalar Network.dyn_peer[73] 	lookupStabilitySig:mean 	0.81661449410021
scalar Network.dyn_peer[73] 	lookupHopsSig:mean 	16.4
scalar Network.dyn_peer[74] 	lookupTimeSig:mean 	2.5714285714286
scalar Network.dyn_peer[74] 	lookupStabilitySig:mean 	0.93418596458754
scalar Network.dyn_peer[74] 	lookupHopsSig:mean 	24.857142857143
scalar Network.dyn_peer[75] 	lookupTimeSig:mean 	1.9142857142857
scalar Network.dyn_peer[75] 	lookupStabilitySig:mean 	0.74324422223227
scalar Network.dyn_peer[75] 	lookupHopsSig:mean 	18.285714285714
scalar Network.dyn_peer[76] 	lookupTimeSig:mean 	2.675
scalar Network.dyn_peer[76] 	lookupStabilitySig:mean 	0.81566369906068
scalar Network.dyn_peer[76] 	lookupHopsSig:mean 	26
scalar Network.dyn_peer[77] 	lookupTimeSig:mean 	2.3666666666667
scalar Network.dyn_peer[77] 	lookupStabilitySig:mean 	0.8950862653243
scalar Network.dyn_peer[77] 	lookupHopsSig:mean 	22.833333333333
scalar Network.dyn_peer[78] 	lookupTimeSig:mean 	2.4
scalar Network.dyn_peer[78] 	lookupStabilitySig:mean 	0.5564249176532
scalar Network.dyn_peer[78] 	lookupHopsSig:mean 	23.25
scalar Network.dyn_peer[79] 	lookupTimeSig:mean 	1.525
scalar Network.dyn_peer[79] 	lookupStabilitySig:mean 	0.47866916656494
scalar Network.dyn_peer[79] 	lookupHopsSig:mean 	14.5
scalar Network.dyn_peer[80] 	lookupTimeSig:mean 	1.7666666666667
scalar Network.dyn_peer[80] 	lookupStabilitySig:mean 	0.58109424853077
scalar Network.dyn_peer[80] 	lookupHopsSig:mean 	16.833333333333
scalar Network.dyn_peer[81] 	lookupTimeSig:mean 	1.63
scalar Network.dyn_peer[81] 	lookupStabilitySig:mean 	0.86918828357011
scalar Network.dyn_peer[81] 	lookupHopsSig:mean 	15.4
scalar Network.dyn_peer[82] 	lookupTimeSig:mean 	0.9625
scalar Network.dyn_peer[82] 	lookupStabilitySig:mean 	0.75299548567273
scalar Network.dyn_peer[82] 	lookupHopsSig:mean 	8.75
scalar Network.dyn_peer[83] 	lookupTimeSig:mean 	2.52
scalar Network.dyn_peer[83] 	lookupStabilitySig:mean 	0.93773031239398
scalar Network.dyn_peer[83] 	lookupHopsSig:mean 	24.4
scalar Network.dyn_peer[84] 	lookupTimeSig:mean 	2.12
scalar Network.dyn_peer[84] 	lookupStabilitySig:mean 	0.54137867316604
scalar Network.dyn_peer[84] 	lookupHopsSig:mean 	20.4
scalar Network.dyn_peer[85] 	lookupTimeSig:mean 	2
scalar Network.dyn_peer[85] 	lookupStabilitySig:mean 	0.68359722197056
scalar Network.dyn_peer[85] 	lookupHopsSig:mean 	19.333333333333
scalar Network.dyn_peer[86] 	lookupTimeSig:mean 	1.5
scalar Network.dyn_peer[86] 	lookupStabilitySig:mean 	0.67650631921632
scalar Network.dyn_peer[86] 	lookupHopsSig:mean 	14.142857142857
scalar Network.dyn_peer[87] 	lookupTimeSig:mean 	1.1
scalar Network.dyn_peer[87] 	lookupStabilitySig:mean 	0.74304653118764
scalar Network.dyn_peer[87] 	lookupHopsSig:mean 	10.142857142857
scalar Network.dyn_peer[88] 	lookupTimeSig:mean 	2.3666666666667
scalar Network.dyn_peer[88] 	lookupStabilitySig:mean 	0.8770857785518
scalar Network.dyn_peer[88] 	lookupHopsSig:mean 	23
scalar Network.dyn_peer[89] 	lookupTimeSig:mean 	2.25
scalar Network.dyn_peer[89] 	lookupStabilitySig:mean 	0.66100079193711
scalar Network.dyn_peer[89] 	lookupHopsSig:mean 	21.666666666667
scalar Network.dyn_peer[90] 	lookupTimeSig:mean 	1.7181818181818
scalar Network.dyn_peer[90] 	lookupStabilitySig:mean 	0.9033815284175
scalar Network.dyn_peer[90] 	lookupHopsSig:mean 	16.272727272727
scalar Network.dyn_peer[91] 	lookupTimeSig:mean 	1.825
scalar Network.dyn_peer[91] 	lookupStabilitySig:mean 	0.78178044129163
scalar Network.dyn_peer[91] 	lookupHopsSig:mean 	17.5
scalar Network.dyn_peer[92] 	lookupTimeSig:mean 	1.1833333333333
scalar Network.dyn_peer[92] 	lookupStabilitySig:mean 	0.7240371281902
scalar Network.dyn_peer[92] 	lookupHopsSig:mean 	11
scalar Network.dyn_peer[93] 	lookupTimeSig:mean 	2.0833333333333
scalar Network.dyn_peer[93] 	lookupStabilitySig:mean 	0.66409612509112
scalar Network.dyn_peer[93] 	lookupHopsSig:mean 	20
scalar Network.dyn_peer[94] 	lookupTimeSig:mean 	1.8428571428571
scalar Network.dyn_peer[94] 	lookupStabilitySig:mean 	0.80430707388691
scalar Network.dyn_peer[94] 	lookupHopsSig:mean 	17.571428571429
scalar Network.dyn_peer[95] 	lookupTimeSig:mean 	1.675
scalar Network.dyn_peer[95] 	lookupStabilitySig:mean 	0.63074229191989
scalar Network.dyn_peer[95] 	lookupHopsSig:mean 	16
scalar Network.dyn_peer[96] 	lookupTimeSig:mean 	2.3090909090909
scalar Network.dyn_peer[96] 	lookupStabilitySig:mean 	0.96518551640805
scalar Network.dyn_peer[96] 	lookupHopsSig:mean 	22.181818181818
scalar Network.dyn_peer[97] 	lookupTimeSig:mean 	3.95
scalar Network.dyn_peer[97] 	lookupStabilitySig:mean 	0.079166665673256
scalar Network.dyn_peer[97] 	lookupHopsSig:mean 	39
scalar Network.dyn_peer[98] 	lookupTimeSig:mean 	2.8
scalar Network.dyn_peer[98] 	lookupStabilitySig:mean 	0.42492858568827
scalar Network.dyn_peer[98] 	lookupHopsSig:mean 	27.333333333333
scalar Network.dyn_peer[99] 	lookupTimeSig:mean 	2.7
scalar Network.dyn_peer[99] 	lookupStabilitySig:mean 	0.58616781793535
scalar Network.dyn_peer[99] 	lookupHopsSig:mean 	26.25
scalar Network.dyn_peer[100] 	lookupTimeSig:mean 	1.24
scalar Network.dyn_peer[100] 	lookupStabilitySig:mean 	0.80843571117148
scalar Network.dyn_peer[100] 	lookupHopsSig:mean 	11.5
scalar Network.dyn_peer[101] 	lookupTimeSig:mean 	1.5
scalar Network.dyn_peer[101] 	lookupStabilitySig:mean 	0.67980234604329
scalar Network.dyn_peer[101] 	lookupHopsSig:mean 	14.25
scalar Network.dyn_peer[102] 	lookupTimeSig:mean 	1.56
scalar Network.dyn_peer[102] 	lookupStabilitySig:mean 	0.91867328537628
scalar Network.dyn_peer[102] 	lookupHopsSig:mean 	14.7
scalar Network.dyn_peer[103] 	lookupTimeSig:mean 	2.2625
scalar Network.dyn_peer[103] 	lookupStabilitySig:mean 	0.92136356193805
scalar Network.dyn_peer[103] 	lookupHopsSig:mean 	21.75
scalar Network.dyn_peer[104] 	lookupTimeSig:mean 	2.22
scalar Network.dyn_peer[104] 	lookupStabilitySig:mean 	0.63514045476913
scalar Network.dyn_peer[104] 	lookupHopsSig:mean 	21.4
scalar Network.dyn_peer[105] 	lookupTimeSig:mean 	2.4222222222222
scalar Network.dyn_peer[105] 	lookupStabilitySig:mean 	0.8455656317787
scalar Network.dyn_peer[105] 	lookupHopsSig:mean 	23.333333333333
scalar Network.dyn_peer[106] 	lookupTimeSig:mean 	2.0428571428571
scalar Network.dyn_peer[106] 	lookupStabilitySig:mean 	0.94129395112395
scalar Network.dyn_peer[106] 	lookupHopsSig:mean 	19.571428571429
scalar Network.dyn_peer[107] 	lookupTimeSig:mean 	1.85
scalar Network.dyn_peer[107] 	lookupStabilitySig:mean 	0.77849762868136
scalar Network.dyn_peer[107] 	lookupHopsSig:mean 	17.6
scalar Network.dyn_peer[108] 	lookupTimeSig:mean 	3.4666666666667
scalar Network.dyn_peer[108] 	lookupStabilitySig:mean 	0.70941300690174
scalar Network.dyn_peer[108] 	lookupHopsSig:mean 	34
scalar Network.dyn_peer[109] 	lookupTimeSig:mean 	2.5571428571429
scalar Network.dyn_peer[109] 	lookupStabilitySig:mean 	0.95664637322937
scalar Network.dyn_peer[109] 	lookupHopsSig:mean 	24.714285714286
scalar Network.dyn_peer[110] 	lookupTimeSig:mean 	1.275
scalar Network.dyn_peer[110] 	lookupStabilitySig:mean 	0.68896917253733
scalar Network.dyn_peer[110] 	lookupHopsSig:mean 	11.875
scalar Network.dyn_peer[111] 	lookupTimeSig:mean 	1.85
scalar Network.dyn_peer[111] 	lookupStabilitySig:mean 	0.77320602349937
scalar Network.dyn_peer[111] 	lookupHopsSig:mean 	17.75
scalar Network.dyn_peer[112] 	lookupTimeSig:mean 	1.76
scalar Network.dyn_peer[112] 	lookupStabilitySig:mean 	0.61626423299313
scalar Network.dyn_peer[112] 	lookupHopsSig:mean 	16.8
scalar Network.dyn_peer[113] 	lookupTimeSig:mean 	2.0090909090909
scalar Network.dyn_peer[113] 	lookupStabilitySig:mean 	0.82443353850183
scalar Network.dyn_peer[113] 	lookupHopsSig:mean 	19.181818181818
scalar Network.dyn_peer[114] 	lookupTimeSig:mean 	1.8076923076923
scalar Network.dyn_peer[114] 	lookupStabilitySig:mean 	0.9580412937973
scalar Network.dyn_peer[114] 	lookupHopsSig:mean 	17.153846153846
scalar Network.dyn_peer[115] 	lookupTimeSig:mean 	2.0333333333333
scalar Network.dyn_peer[115] 	lookupStabilitySig:mean 	0.88594409027913
scalar Network.dyn_peer[115] 	lookupHopsSig:mean 	19.444444444444
scalar Network.dyn_peer[116] 	lookupTimeSig:mean 	2.09
scalar Network.dyn_peer[116] 	lookupStabilitySig:mean 	0.88073905790225
scalar Network.dyn_peer[116] 	lookupHopsSig:mean 	20
scalar Network.dyn_peer[117] 	lookupTimeSig:mean 	1.175
scalar Network.dyn_peer[117] 	lookupStabilitySig:mean 	0.712938726414
scalar Network.dyn_peer[117] 	lookupHopsSig:mean 	10.875
scalar Network.dyn_peer[118] 	lookupTimeSig:mean 	2.5
scalar Network.dyn_peer[118] 	lookupStabilitySig:mean 	0.8571417350322
scalar Network.dyn_peer[118] 	lookupHopsSig:mean 	24.2
scalar Network.dyn_peer[119] 	lookupTimeSig:mean 	2.0125
scalar Network.dyn_peer[119] 	lookupStabilitySig:mean 	0.8336297434289
scalar Network.dyn_peer[119] 	lookupHopsSig:mean 	19.25
scalar Network.dyn_peer[120] 	lookupTimeSig:mean 	2.65
scalar Network.dyn_peer[120] 	lookupStabilitySig:mean 	0.76503458921798
scalar Network.dyn_peer[120] 	lookupHopsSig:mean 	25.75
scalar Network.dyn_peer[121] 	lookupTimeSig:mean 	1.85
scalar Network.dyn_peer[121] 	lookupStabilitySig:mean 	0.62367031692217
scalar Network.dyn_peer[121] 	lookupHopsSig:mean 	17.666666666667
scalar Network.dyn_peer[122] 	lookupTimeSig:mean 	1.625
scalar Network.dyn_peer[122] 	lookupStabilitySig:mean 	0.7840766934678
scalar Network.dyn_peer[122] 	lookupHopsSig:mean 	15.5
scalar Network.dyn_peer[123] 	lookupTimeSig:mean 	1.3
scalar Network.dyn_peer[123] 	lookupStabilitySig:mean 	0.54717943370342
scalar Network.dyn_peer[123] 	lookupHopsSig:mean 	12.2
scalar Network.dyn_peer[124] 	lookupTimeSig:mean 	1.3428571428571
scalar Network.dyn_peer[124] 	lookupStabilitySig:mean 	0.73923667546894
scalar Network.dyn_peer[124] 	lookupHopsSig:mean 	12.571428571429
scalar Network.dyn_peer[125] 	lookupTimeSig:mean 	1.5625
scalar Network.dyn_peer[125] 	lookupStabilitySig:mean 	0.94291507266462
scalar Network.dyn_peer[125] 	lookupHopsSig:mean 	14.75
scalar Network.dyn_peer[126] 	lookupTimeSig:mean 	2.2416666666667
scalar Network.dyn_peer[126] 	lookupStabilitySig:mean 	0.95290239240664
scalar Network.dyn_peer[126] 	lookupHopsSig:mean 	21.5
scalar Network.dyn_peer[127] 	lookupTimeSig:mean 	1.55
scalar Network.dyn_peer[127] 	lookupStabilitySig:mean 	0.87119776786615
scalar Network.dyn_peer[127] 	lookupHopsSig:mean 	14.666666666667
scalar Network.dyn_peer[128] 	lookupTimeSig:mean 	2.0833333333333
scalar Network.dyn_peer[128] 	lookupStabilitySig:mean 	0.7881105998531
scalar Network.dyn_peer[128] 	lookupHopsSig:mean 	20
scalar Network.dyn_peer[129] 	lookupTimeSig:mean 	2.4375
scalar Network.dyn_peer[129] 	lookupStabilitySig:mean 	0.93410032772226
scalar Network.dyn_peer[129] 	lookupHopsSig:mean 	23.5
scalar Network.dyn_peer[130] 	lookupTimeSig:mean 	1.3692307692308
scalar Network.dyn_peer[130] 	lookupStabilitySig:mean 	0.92035361064168
scalar Network.dyn_peer[130] 	lookupHopsSig:mean 	12.769230769231
scalar Network.dyn_peer[131] 	lookupTimeSig:mean 	1.8571428571429
scalar Network.dyn_peer[131] 	lookupStabilitySig:mean 	0.86290956301881
scalar Network.dyn_peer[131] 	lookupHopsSig:mean 	17.714285714286
scalar Network.dyn_peer[132] 	lookupTimeSig:mean 	1.8125
scalar Network.dyn_peer[132] 	lookupStabilitySig:mean 	0.76310145808384
scalar Network.dyn_peer[132] 	lookupHopsSig:mean 	17.25
scalar Network.dyn_peer[133] 	lookupTimeSig:mean 	1.9
scalar Network.dyn_peer[133] 	lookupStabilitySig:mean 	0.92043613092974
scalar Network.dyn_peer[133] 	lookupHopsSig:mean 	18.1
scalar Network.dyn_peer[134] 	lookupTimeSig:mean 	1.7818181818182
scalar Network.dyn_peer[134] 	lookupStabilitySig:mean 	0.96401478542777
scalar Network.dyn_peer[134] 	lookupHopsSig:mean 	16.909090909091
scalar Network.dyn_peer[135] 	lookupTimeSig:mean 	1.18
scalar Network.dyn_peer[135] 	lookupStabilitySig:mean 	0.50533242896199
scalar Network.dyn_peer[135] 	lookupHopsSig:mean 	11
scalar Network.dyn_peer[136] 	lookupTimeSig:mean 	1.24
scalar Network.dyn_peer[136] 	lookupStabilitySig:mean 	0.57724427096546
scalar Network.dyn_peer[136] 	lookupHopsSig:mean 	11.6
scalar Network.dyn_peer[137] 	lookupTimeSig:mean 	1.775
scalar Network.dyn_peer[137] 	lookupStabilitySig:mean 	0.53081681393087
scalar Network.dyn_peer[137] 	lookupHopsSig:mean 	17
scalar Network.dyn_peer[138] 	lookupTimeSig:mean 	1.6375
scalar Network.dyn_peer[138] 	lookupStabilitySig:mean 	0.92952392064035
scalar Network.dyn_peer[138] 	lookupHopsSig:mean 	15.5
scalar Network.dyn_peer[139] 	lookupTimeSig:mean 	1.7
scalar Network.dyn_peer[139] 	lookupStabilitySig:mean 	0.5439051926136
scalar Network.dyn_peer[139] 	lookupHopsSig:mean 	16.2
scalar Network.dyn_peer[140] 	lookupTimeSig:mean 	2.26
scalar Network.dyn_peer[140] 	lookupStabilitySig:mean 	0.79645670130849
scalar Network.dyn_peer[140] 	lookupHopsSig:mean 	21.8
scalar Network.dyn_peer[141] 	lookupTimeSig:mean 	6.8
scalar Network.dyn_peer[141] 	lookupStabilitySig:mean 	0.88553958944976
scalar Network.dyn_peer[141] 	lookupHopsSig:mean 	67.5
scalar Network.dyn_peer[142] 	lookupTimeSig:mean 	2.225
scalar Network.dyn_peer[142] 	lookupStabilitySig:mean 	0.62763157486916
scalar Network.dyn_peer[142] 	lookupHopsSig:mean 	21.5
scalar Network.dyn_peer[143] 	lookupTimeSig:mean 	1.875
scalar Network.dyn_peer[143] 	lookupStabilitySig:mean 	0.50307177379727
scalar Network.dyn_peer[143] 	lookupHopsSig:mean 	18
scalar Network.dyn_peer[144] 	lookupTimeSig:mean 	1.2083333333333
scalar Network.dyn_peer[144] 	lookupStabilitySig:mean 	0.86414155224338
scalar Network.dyn_peer[144] 	lookupHopsSig:mean 	11.166666666667
scalar Network.dyn_peer[145] 	lookupTimeSig:mean 	2.125
scalar Network.dyn_peer[145] 	lookupStabilitySig:mean 	0.66174873244017
scalar Network.dyn_peer[145] 	lookupHopsSig:mean 	20.5
scalar Network.dyn_peer[146] 	lookupTimeSig:mean 	2.7333333333333
scalar Network.dyn_peer[146] 	lookupStabilitySig:mean 	0.85151613503695
scalar Network.dyn_peer[146] 	lookupHopsSig:mean 	26.444444444444
scalar Network.dyn_peer[147] 	lookupTimeSig:mean 	2.25
scalar Network.dyn_peer[147] 	lookupStabilitySig:mean 	0.76845355145633
scalar Network.dyn_peer[147] 	lookupHopsSig:mean 	21.75
scalar Network.dyn_peer[148] 	lookupTimeSig:mean 	1.9666666666667
scalar Network.dyn_peer[148] 	lookupStabilitySig:mean 	0.7141618039459
scalar Network.dyn_peer[148] 	lookupHopsSig:mean 	18.833333333333
scalar Network.dyn_peer[149] 	lookupTimeSig:mean 	2.125
scalar Network.dyn_peer[149] 	lookupStabilitySig:mean 	0.47013766691089
scalar Network.dyn_peer[149] 	lookupHopsSig:mean 	20.5
scalar Network.dyn_peer[150] 	lookupTimeSig:mean 	2.2285714285714
scalar Network.dyn_peer[150] 	lookupStabilitySig:mean 	0.93630488230182
scalar Network.dyn_peer[150] 	lookupHopsSig:mean 	21.428571428571
scalar Network.dyn_peer[151] 	lookupTimeSig:mean 	2.74
scalar Network.dyn_peer[151] 	lookupStabilitySig:mean 	0.84928555339575
scalar Network.dyn_peer[151] 	lookupHopsSig:mean 	26.6
scalar Network.dyn_peer[152] 	lookupTimeSig:mean 	1.9333333333333
scalar Network.dyn_peer[152] 	lookupStabilitySig:mean 	0.61541949709256
scalar Network.dyn_peer[152] 	lookupHopsSig:mean 	18.666666666667
scalar Network.dyn_peer[153] 	lookupTimeSig:mean 	1.7571428571429
scalar Network.dyn_peer[153] 	lookupStabilitySig:mean 	0.73733062902465
scalar Network.dyn_peer[153] 	lookupHopsSig:mean 	16.714285714286
scalar Network.dyn_peer[154] 	lookupTimeSig:mean 	3.2333333333333
scalar Network.dyn_peer[154] 	lookupStabilitySig:mean 	0.70754929818213
scalar Network.dyn_peer[154] 	lookupHopsSig:mean 	31.666666666667
scalar Network.dyn_peer[155] 	lookupTimeSig:mean 	1.4571428571429
scalar Network.dyn_peer[155] 	lookupStabilitySig:mean 	0.84027757628688
scalar Network.dyn_peer[155] 	lookupHopsSig:mean 	13.714285714286
scalar Network.dyn_peer[156] 	lookupTimeSig:mean 	2.375
scalar Network.dyn_peer[156] 	lookupStabilitySig:mean 	0.44830137863755
scalar Network.dyn_peer[156] 	lookupHopsSig:mean 	23
scalar Network.dyn_peer[157] 	lookupTimeSig:mean 	1.6333333333333
scalar Network.dyn_peer[157] 	lookupStabilitySig:mean 	0.79303340556928
scalar Network.dyn_peer[157] 	lookupHopsSig:mean 	15.444444444444
scalar Network.dyn_peer[158] 	lookupTimeSig:mean 	1.6
scalar Network.dyn_peer[158] 	lookupStabilitySig:mean 	0.7580676600337
scalar Network.dyn_peer[158] 	lookupHopsSig:mean 	15.2
scalar Network.dyn_peer[159] 	lookupTimeSig:mean 	3.35
scalar Network.dyn_peer[159] 	lookupStabilitySig:mean 	0.156773224473
scalar Network.dyn_peer[159] 	lookupHopsSig:mean 	33
scalar Network.dyn_peer[160] 	lookupTimeSig:mean 	2.15
scalar Network.dyn_peer[160] 	lookupStabilitySig:mean 	0.80926843266934
scalar Network.dyn_peer[160] 	lookupHopsSig:mean 	20.75
scalar Network.dyn_peer[161] 	lookupTimeSig:mean 	1.48
scalar Network.dyn_peer[161] 	lookupStabilitySig:mean 	0.63106605410576
scalar Network.dyn_peer[161] 	lookupHopsSig:mean 	14
scalar Network.dyn_peer[162] 	lookupTimeSig:mean 	2.2428571428571
scalar Network.dyn_peer[162] 	lookupStabilitySig:mean 	0.93660316975521
scalar Network.dyn_peer[162] 	lookupHopsSig:mean 	21.571428571429
scalar Network.dyn_peer[163] 	lookupTimeSig:mean 	1.7428571428571
scalar Network.dyn_peer[163] 	lookupStabilitySig:mean 	0.79942970190729
scalar Network.dyn_peer[163] 	lookupHopsSig:mean 	16.571428571429
scalar Network.dyn_peer[164] 	lookupTimeSig:mean 	1.6692307692308
scalar Network.dyn_peer[164] 	lookupStabilitySig:mean 	0.86041332458934
scalar Network.dyn_peer[164] 	lookupHopsSig:mean 	15.769230769231
scalar Network.dyn_peer[165] 	lookupTimeSig:mean 	3.3
scalar Network.dyn_peer[165] 	lookupStabilitySig:mean 	0.52425664663315
scalar Network.dyn_peer[165] 	lookupHopsSig:mean 	32.5
scalar Network.dyn_peer[166] 	lookupTimeSig:mean 	2.1888888888889
scalar Network.dyn_peer[166] 	lookupStabilitySig:mean 	0.90840150922951
scalar Network.dyn_peer[166] 	lookupHopsSig:mean 	21
scalar Network.dyn_peer[167] 	lookupTimeSig:mean 	1.0454545454545
scalar Network.dyn_peer[167] 	lookupStabilitySig:mean 	0.8545734597878
scalar Network.dyn_peer[167] 	lookupHopsSig:mean 	9.5454545454545
scalar Network.dyn_peer[168] 	lookupTimeSig:mean 	1.6272727272727
scalar Network.dyn_peer[168] 	lookupStabilitySig:mean 	0.91979902940379
scalar Network.dyn_peer[168] 	lookupHopsSig:mean 	15.363636363636
scalar Network.dyn_peer[169] 	lookupTimeSig:mean 	1.6153846153846
scalar Network.dyn_peer[169] 	lookupStabilitySig:mean 	0.91031510723182
scalar Network.dyn_peer[169] 	lookupHopsSig:mean 	15.230769230769
scalar Network.dyn_peer[170] 	lookupTimeSig:mean 	2.4
scalar Network.dyn_peer[170] 	lookupStabilitySig:mean 	0.7264999717474
scalar Network.dyn_peer[170] 	lookupHopsSig:mean 	23.2
scalar Network.dyn_peer[171] 	lookupTimeSig:mean 	1.6875
scalar Network.dyn_peer[171] 	lookupStabilitySig:mean 	0.90742023510393
scalar Network.dyn_peer[171] 	lookupHopsSig:mean 	16
scalar Network.dyn_peer[172] 	lookupTimeSig:mean 	1.4
scalar Network.dyn_peer[172] 	lookupStabilitySig:mean 	0.27499997615814
scalar Network.dyn_peer[172] 	lookupHopsSig:mean 	13.5
scalar Network.dyn_peer[173] 	lookupTimeSig:mean 	1
scalar Network.dyn_peer[173] 	lookupStabilitySig:mean 	0.3777777813375
scalar Network.dyn_peer[173] 	lookupHopsSig:mean 	9.5
scalar Network.dyn_peer[174] 	lookupTimeSig:mean 	1.875
scalar Network.dyn_peer[174] 	lookupStabilitySig:mean 	0.69779932778329
scalar Network.dyn_peer[174] 	lookupHopsSig:mean 	18
scalar Network.dyn_peer[175] 	lookupTimeSig:mean 	2.3
scalar Network.dyn_peer[175] 	lookupStabilitySig:mean 	0.5369694729646
scalar Network.dyn_peer[175] 	lookupHopsSig:mean 	22.333333333333
scalar Network.dyn_peer[176] 	lookupTimeSig:mean 	1.2666666666667
scalar Network.dyn_peer[176] 	lookupStabilitySig:mean 	0.85481728116671
scalar Network.dyn_peer[176] 	lookupHopsSig:mean 	11.777777777778
scalar Network.dyn_peer[177] 	lookupTimeSig:mean 	1.9
scalar Network.dyn_peer[177] 	lookupStabilitySig:mean 	0.4348853006959
scalar Network.dyn_peer[177] 	lookupHopsSig:mean 	18.5
scalar Network.dyn_peer[178] 	lookupTimeSig:mean 	1.4142857142857
scalar Network.dyn_peer[178] 	lookupStabilitySig:mean 	0.85624682637198
scalar Network.dyn_peer[178] 	lookupHopsSig:mean 	13.285714285714
scalar Network.dyn_peer[179] 	lookupTimeSig:mean 	2.4166666666667
scalar Network.dyn_peer[179] 	lookupStabilitySig:mean 	0.72875352793684
scalar Network.dyn_peer[179] 	lookupHopsSig:mean 	23.333333333333
scalar Network.dyn_peer[180] 	lookupTimeSig:mean 	3.6333333333333
scalar Network.dyn_peer[180] 	lookupStabilitySig:mean 	0.82160151439408
scalar Network.dyn_peer[180] 	lookupHopsSig:mean 	35.666666666667
scalar Network.dyn_peer[181] 	lookupTimeSig:mean 	2.175
scalar Network.dyn_peer[181] 	lookupStabilitySig:mean 	0.66301520075649
scalar Network.dyn_peer[181] 	lookupHopsSig:mean 	21
scalar Network.dyn_peer[182] 	lookupTimeSig:mean 	3.15
scalar Network.dyn_peer[182] 	lookupStabilitySig:mean 	0.5934339761734
scalar Network.dyn_peer[182] 	lookupHopsSig:mean 	30.75
scalar Network.dyn_peer[183] 	lookupTimeSig:mean 	1.4833333333333
scalar Network.dyn_peer[183] 	lookupStabilitySig:mean 	0.71468361280859
scalar Network.dyn_peer[183] 	lookupHopsSig:mean 	14
scalar Network.dyn_peer[184] 	lookupTimeSig:mean 	2.0714285714286
scalar Network.dyn_peer[184] 	lookupStabilitySig:mean 	0.9367222333593
scalar Network.dyn_peer[184] 	lookupHopsSig:mean 	19.857142857143
scalar Network.dyn_peer[185] 	lookupTimeSig:mean 	1.5285714285714
scalar Network.dyn_peer[185] 	lookupStabilitySig:mean 	0.83210125565529
scalar Network.dyn_peer[185] 	lookupHopsSig:mean 	14.428571428571
scalar Network.dyn_peer[186] 	lookupTimeSig:mean 	2.1666666666667
scalar Network.dyn_peer[186] 	lookupStabilitySig:mean 	0.56332784642776
scalar Network.dyn_peer[186] 	lookupHopsSig:mean 	21
scalar Network.dyn_peer[187] 	lookupTimeSig:mean 	2.36
scalar Network.dyn_peer[187] 	lookupStabilitySig:mean 	0.86850306205451
scalar Network.dyn_peer[187] 	lookupHopsSig:mean 	22.8
scalar Network.dyn_peer[188] 	lookupTimeSig:mean 	3.1125
scalar Network.dyn_peer[188] 	lookupStabilitySig:mean 	0.95976084226277
scalar Network.dyn_peer[188] 	lookupHopsSig:mean 	30.25
scalar Network.dyn_peer[189] 	lookupTimeSig:mean 	2.2714285714286
scalar Network.dyn_peer[189] 	lookupStabilitySig:mean 	0.93734194285103
scalar Network.dyn_peer[189] 	lookupHopsSig:mean 	21.857142857143
scalar Network.dyn_peer[190] 	lookupTimeSig:mean 	1.8666666666667
scalar Network.dyn_peer[190] 	lookupStabilitySig:mean 	0.67054717883002
scalar Network.dyn_peer[190] 	lookupHopsSig:mean 	17.833333333333
scalar Network.dyn_peer[191] 	lookupTimeSig:mean 	1.84
scalar Network.dyn_peer[191] 	lookupStabilitySig:mean 	0.86180476844311
scalar Network.dyn_peer[191] 	lookupHopsSig:mean 	17.6
scalar Network.dyn_peer[192] 	lookupTimeSig:mean 	1.5375
scalar Network.dyn_peer[192] 	lookupStabilitySig:mean 	0.75072658970021
scalar Network.dyn_peer[192] 	lookupHopsSig:mean 	14.5
scalar Network.dyn_peer[193] 	lookupTimeSig:mean 	1.6714285714286
scalar Network.dyn_peer[193] 	lookupStabilitySig:mean 	0.78696905103113
scalar Network.dyn_peer[193] 	lookupHopsSig:mean 	15.857142857143
scalar Network.dyn_peer[194] 	lookupTimeSig:mean 	1.6777777777778
scalar Network.dyn_peer[194] 	lookupStabilitySig:mean 	0.79633202284781
scalar Network.dyn_peer[194] 	lookupHopsSig:mean 	15.888888888889
scalar Network.dyn_peer[195] 	lookupTimeSig:mean 	3.025
scalar Network.dyn_peer[195] 	lookupStabilitySig:mean 	0.80957407178357
scalar Network.dyn_peer[195] 	lookupHopsSig:mean 	29.5
scalar Network.dyn_peer[196] 	lookupTimeSig:mean 	2.0416666666667
scalar Network.dyn_peer[196] 	lookupStabilitySig:mean 	0.97232563626797
scalar Network.dyn_peer[196] 	lookupHopsSig:mean 	19.5
scalar Network.dyn_peer[197] 	lookupTimeSig:mean 	1.5833333333333
scalar Network.dyn_peer[197] 	lookupStabilitySig:mean 	0.72418762526164
scalar Network.dyn_peer[197] 	lookupHopsSig:mean 	15
scalar Network.dyn_peer[198] 	lookupTimeSig:mean 	1.525
scalar Network.dyn_peer[198] 	lookupStabilitySig:mean 	0.56802254170179
scalar Network.dyn_peer[198] 	lookupHopsSig:mean 	14.5
scalar Network.dyn_peer[199] 	lookupTimeSig:mean 	2.025
scalar Network.dyn_peer[199] 	lookupStabilitySig:mean 	0.48117528576404
scalar Network.dyn_peer[199] 	lookupHopsSig:mean 	19.5
scalar Network.dyn_peer[200] 	lookupTimeSig:mean 	2.6
scalar Network.dyn_peer[200] 	lookupStabilitySig:mean 	0.82713012583554
scalar Network.dyn_peer[200] 	lookupHopsSig:mean 	25.142857142857
scalar Network.dyn_peer[201] 	lookupTimeSig:mean 	1.6428571428571
scalar Network.dyn_peer[201] 	lookupStabilitySig:mean 	0.85562995797954
scalar Network.dyn_peer[201] 	lookupHopsSig:mean 	15.5
scalar Network.dyn_peer[202] 	lookupTimeSig:mean 	1.4636363636364
scalar Network.dyn_peer[202] 	lookupStabilitySig:mean 	0.94516038268127
scalar Network.dyn_peer[202] 	lookupHopsSig:mean 	13.727272727273
scalar Network.dyn_peer[203] 	lookupTimeSig:mean 	0.95
scalar Network.dyn_peer[203] 	lookupStabilitySig:mean 	0.59065657667816
scalar Network.dyn_peer[203] 	lookupHopsSig:mean 	8.75
scalar Network.dyn_peer[204] 	lookupTimeSig:mean 	1.5
scalar Network.dyn_peer[204] 	lookupStabilitySig:mean 	0.70706544443965
scalar Network.dyn_peer[204] 	lookupHopsSig:mean 	14.25
scalar Network.dyn_peer[205] 	lookupTimeSig:mean 	2.6
scalar Network.dyn_peer[205] 	lookupStabilitySig:mean 	0.80257697030902
scalar Network.dyn_peer[205] 	lookupHopsSig:mean 	25.25
scalar Network.dyn_peer[206] 	lookupTimeSig:mean 	1.88
scalar Network.dyn_peer[206] 	lookupStabilitySig:mean 	0.7734184525907
scalar Network.dyn_peer[206] 	lookupHopsSig:mean 	18
scalar Network.dyn_peer[207] 	lookupTimeSig:mean 	1.95
scalar Network.dyn_peer[207] 	lookupStabilitySig:mean 	0.64939762714008
scalar Network.dyn_peer[207] 	lookupHopsSig:mean 	18.666666666667
scalar Network.dyn_peer[208] 	lookupTimeSig:mean 	1.9636363636364
scalar Network.dyn_peer[208] 	lookupStabilitySig:mean 	0.7795755608346
scalar Network.dyn_peer[208] 	lookupHopsSig:mean 	18.727272727273
scalar Network.dyn_peer[209] 	lookupTimeSig:mean 	1.4181818181818
scalar Network.dyn_peer[209] 	lookupStabilitySig:mean 	0.79089233763939
scalar Network.dyn_peer[209] 	lookupHopsSig:mean 	13.272727272727
scalar Network.dyn_peer[210] 	lookupTimeSig:mean 	1.58125
scalar Network.dyn_peer[210] 	lookupStabilitySig:mean 	0.90349800753756
scalar Network.dyn_peer[210] 	lookupHopsSig:mean 	14.875
scalar Network.dyn_peer[211] 	lookupTimeSig:mean 	5.7
scalar Network.dyn_peer[211] 	lookupStabilitySig:mean 	0.59455694258213
scalar Network.dyn_peer[211] 	lookupHopsSig:mean 	56.5
scalar Network.dyn_peer[212] 	lookupTimeSig:mean 	2.2
scalar Network.dyn_peer[212] 	lookupStabilitySig:mean 	0.65172422941153
scalar Network.dyn_peer[212] 	lookupHopsSig:mean 	21.166666666667
scalar Network.dyn_peer[213] 	lookupTimeSig:mean 	1.48
scalar Network.dyn_peer[213] 	lookupStabilitySig:mean 	0.5257872775197
scalar Network.dyn_peer[213] 	lookupHopsSig:mean 	14
scalar Network.dyn_peer[214] 	lookupTimeSig:mean 	3.5142857142857
scalar Network.dyn_peer[214] 	lookupStabilitySig:mean 	0.95607266096132
scalar Network.dyn_peer[214] 	lookupHopsSig:mean 	34.285714285714
scalar Network.dyn_peer[215] 	lookupTimeSig:mean 	1.56
scalar Network.dyn_peer[215] 	lookupStabilitySig:mean 	0.7230314090848
scalar Network.dyn_peer[215] 	lookupHopsSig:mean 	14.8
scalar Network.dyn_peer[216] 	lookupTimeSig:mean 	2.325
scalar Network.dyn_peer[216] 	lookupStabilitySig:mean 	0.73272651713341
scalar Network.dyn_peer[216] 	lookupHopsSig:mean 	22.5
scalar Network.dyn_peer[217] 	lookupTimeSig:mean 	1.825
scalar Network.dyn_peer[217] 	lookupStabilitySig:mean 	0.87551595736295
scalar Network.dyn_peer[217] 	lookupHopsSig:mean 	17.375
scalar Network.dyn_peer[218] 	lookupTimeSig:mean 	1.3555555555556
scalar Network.dyn_peer[218] 	lookupStabilitySig:mean 	0.73979331532286
scalar Network.dyn_peer[218] 	lookupHopsSig:mean 	12.666666666667
scalar Network.dyn_peer[219] 	lookupTimeSig:mean 	1.75
scalar Network.dyn_peer[219] 	lookupStabilitySig:mean 	0.62868533283472
scalar Network.dyn_peer[219] 	lookupHopsSig:mean 	16.75
scalar Network.dyn_peer[220] 	lookupTimeSig:mean 	1.925
scalar Network.dyn_peer[220] 	lookupStabilitySig:mean 	0.56770643405616
scalar Network.dyn_peer[220] 	lookupHopsSig:mean 	18.5
scalar Network.dyn_peer[221] 	lookupTimeSig:mean 	2.625
scalar Network.dyn_peer[221] 	lookupStabilitySig:mean 	0.82644285541028
scalar Network.dyn_peer[221] 	lookupHopsSig:mean 	25.5
scalar Network.dyn_peer[222] 	lookupTimeSig:mean 	1.5545454545455
scalar Network.dyn_peer[222] 	lookupStabilitySig:mean 	0.92837178884921
scalar Network.dyn_peer[222] 	lookupHopsSig:mean 	14.636363636364
scalar Network.dyn_peer[223] 	lookupTimeSig:mean 	1.66
scalar Network.dyn_peer[223] 	lookupStabilitySig:mean 	0.82622494874522
scalar Network.dyn_peer[223] 	lookupHopsSig:mean 	15.7
scalar Network.dyn_peer[224] 	lookupTimeSig:mean 	1.3
scalar Network.dyn_peer[224] 	lookupStabilitySig:mean 	0.77071528194938
scalar Network.dyn_peer[224] 	lookupHopsSig:mean 	12.125
scalar Network.dyn_peer[225] 	lookupTimeSig:mean 	1.85
scalar Network.dyn_peer[225] 	lookupStabilitySig:mean 	0.70827160496265
scalar Network.dyn_peer[225] 	lookupHopsSig:mean 	17.75
scalar Network.dyn_peer[226] 	lookupTimeSig:mean 	2.4
scalar Network.dyn_peer[226] 	lookupStabilitySig:mean 	0.75023294395457
scalar Network.dyn_peer[226] 	lookupHopsSig:mean 	23.166666666667
scalar Network.dyn_peer[227] 	lookupTimeSig:mean 	3.3142857142857
scalar Network.dyn_peer[227] 	lookupStabilitySig:mean 	0.95818904248465
scalar Network.dyn_peer[227] 	lookupHopsSig:mean 	32.285714285714
scalar Network.dyn_peer[228] 	lookupTimeSig:mean 	1.5
scalar Network.dyn_peer[228] 	lookupStabilitySig:mean 	0.84059947612695
scalar Network.dyn_peer[228] 	lookupHopsSig:mean 	14.125
scalar Network.dyn_peer[229] 	lookupTimeSig:mean 	1.9
scalar Network.dyn_peer[229] 	lookupStabilitySig:mean 	0.6595324985683
scalar Network.dyn_peer[229] 	lookupHopsSig:mean 	18.5
scalar Network.dyn_peer[230] 	lookupTimeSig:mean 	1.8714285714286
scalar Network.dyn_peer[230] 	lookupStabilitySig:mean 	0.68212260305882
scalar Network.dyn_peer[230] 	lookupHopsSig:mean 	17.857142857143
scalar Network.dyn_peer[231] 	lookupTimeSig:mean 	2.7
scalar Network.dyn_peer[231] 	lookupStabilitySig:mean 	0.95145727467856
scalar Network.dyn_peer[231] 	lookupHopsSig:mean 	26.142857142857
scalar Network.dyn_peer[232] 	lookupTimeSig:mean 	1.65
scalar Network.dyn_peer[232] 	lookupStabilitySig:mean 	0.87501494865865
scalar Network.dyn_peer[232] 	lookupHopsSig:mean 	15.666666666667
scalar Network.dyn_peer[233] 	lookupTimeSig:mean 	1.95
scalar Network.dyn_peer[233] 	lookupStabilitySig:mean 	0.69780060183257
scalar Network.dyn_peer[233] 	lookupHopsSig:mean 	18.75
scalar Network.dyn_peer[234] 	lookupTimeSig:mean 	2.3285714285714
scalar Network.dyn_peer[234] 	lookupStabilitySig:mean 	0.89387590278472
scalar Network.dyn_peer[234] 	lookupHopsSig:mean 	22.428571428571
scalar Network.dyn_peer[235] 	lookupTimeSig:mean 	1.575
scalar Network.dyn_peer[235] 	lookupStabilitySig:mean 	0.58710778318346
scalar Network.dyn_peer[235] 	lookupHopsSig:mean 	15
scalar Network.dyn_peer[236] 	lookupTimeSig:mean 	1.5142857142857
scalar Network.dyn_peer[236] 	lookupStabilitySig:mean 	0.91071630269289
scalar Network.dyn_peer[236] 	lookupHopsSig:mean 	14.285714285714
scalar Network.dyn_peer[237] 	lookupTimeSig:mean 	1.8571428571429
scalar Network.dyn_peer[237] 	lookupStabilitySig:mean 	0.68926499358245
scalar Network.dyn_peer[237] 	lookupHopsSig:mean 	17.714285714286
scalar Network.dyn_peer[238] 	lookupTimeSig:mean 	2.65
scalar Network.dyn_peer[238] 	lookupStabilitySig:mean 	0.39831931889057
scalar Network.dyn_peer[238] 	lookupHopsSig:mean 	26
scalar Network.dyn_peer[239] 	lookupTimeSig:mean 	2.57
scalar Network.dyn_peer[239] 	lookupStabilitySig:mean 	0.95878894994967
scalar Network.dyn_peer[239] 	lookupHopsSig:mean 	24.8
scalar Network.dyn_peer[240] 	lookupTimeSig:mean 	1.5166666666667
scalar Network.dyn_peer[240] 	lookupStabilitySig:mean 	0.81759852233032
scalar Network.dyn_peer[240] 	lookupHopsSig:mean 	14.333333333333
scalar Network.dyn_peer[241] 	lookupTimeSig:mean 	2.4333333333333
scalar Network.dyn_peer[241] 	lookupStabilitySig:mean 	0.48229352136453
scalar Network.dyn_peer[241] 	lookupHopsSig:mean 	23.666666666667
scalar Network.dyn_peer[242] 	lookupTimeSig:mean 	1.8117647058824
scalar Network.dyn_peer[242] 	lookupStabilitySig:mean 	0.89248504040434
scalar Network.dyn_peer[242] 	lookupHopsSig:mean 	17.176470588235
scalar Network.dyn_peer[243] 	lookupTimeSig:mean 	1.78
scalar Network.dyn_peer[243] 	lookupStabilitySig:mean 	0.58661865070462
scalar Network.dyn_peer[243] 	lookupHopsSig:mean 	17
scalar Network.dyn_peer[244] 	lookupTimeSig:mean 	1.3692307692308
scalar Network.dyn_peer[244] 	lookupStabilitySig:mean 	0.93144112209288
scalar Network.dyn_peer[244] 	lookupHopsSig:mean 	12.769230769231
scalar Network.dyn_peer[245] 	lookupTimeSig:mean 	0.9125
scalar Network.dyn_peer[245] 	lookupStabilitySig:mean 	0.70388857461512
scalar Network.dyn_peer[245] 	lookupHopsSig:mean 	8.25
scalar Network.dyn_peer[246] 	lookupTimeSig:mean 	1.525
scalar Network.dyn_peer[246] 	lookupStabilitySig:mean 	0.72069805860519
scalar Network.dyn_peer[246] 	lookupHopsSig:mean 	14.5
scalar Network.dyn_peer[247] 	lookupTimeSig:mean 	2.05
scalar Network.dyn_peer[247] 	lookupStabilitySig:mean 	0.72768196898202
scalar Network.dyn_peer[247] 	lookupHopsSig:mean 	19.666666666667
scalar Network.dyn_peer[248] 	lookupTimeSig:mean 	1.3818181818182
scalar Network.dyn_peer[248] 	lookupStabilitySig:mean 	0.95869801591404
scalar Network.dyn_peer[248] 	lookupHopsSig:mean 	12.909090909091
scalar Network.dyn_peer[249] 	lookupTimeSig:mean 	1.52
scalar Network.dyn_peer[249] 	lookupStabilitySig:mean 	0.75015079788864
scalar Network.dyn_peer[249] 	lookupHopsSig:mean 	14.4
scalar Network.dyn_peer[250] 	lookupTimeSig:mean 	1.7833333333333
scalar Network.dyn_peer[250] 	lookupStabilitySig:mean 	0.7810990648965
scalar Network.dyn_peer[250] 	lookupHopsSig:mean 	17
scalar Network.dyn_peer[251] 	lookupTimeSig:mean 	1.2
scalar Network.dyn_peer[251] 	lookupStabilitySig:mean 	0.63577724248171
scalar Network.dyn_peer[251] 	lookupHopsSig:mean 	11.25
scalar Network.dyn_peer[252] 	lookupTimeSig:mean 	4.26
scalar Network.dyn_peer[252] 	lookupStabilitySig:mean 	0.93938002511859
scalar Network.dyn_peer[252] 	lookupHopsSig:mean 	41.8
scalar Network.dyn_peer[253] 	lookupTimeSig:mean 	1.9222222222222
scalar Network.dyn_peer[253] 	lookupStabilitySig:mean 	0.96140614809054
scalar Network.dyn_peer[253] 	lookupHopsSig:mean 	18.333333333333
scalar Network.dyn_peer[254] 	lookupTimeSig:mean 	2
scalar Network.dyn_peer[254] 	lookupStabilitySig:mean 	0.92529362548764
scalar Network.dyn_peer[254] 	lookupHopsSig:mean 	19.166666666667
scalar Network.dyn_peer[255] 	lookupTimeSig:mean 	1.6
scalar Network.dyn_peer[255] 	lookupStabilitySig:mean 	0.75929988024291
scalar Network.dyn_peer[255] 	lookupHopsSig:mean 	15.125
scalar Network.dyn_peer[256] 	lookupTimeSig:mean 	2.325
scalar Network.dyn_peer[256] 	lookupStabilitySig:mean 	0.65208866260946
scalar Network.dyn_peer[256] 	lookupHopsSig:mean 	22.5
scalar Network.dyn_peer[257] 	lookupTimeSig:mean 	3.7
scalar Network.dyn_peer[257] 	lookupStabilitySig:mean 	0.85218560532667
scalar Network.dyn_peer[257] 	lookupHopsSig:mean 	36.25
scalar Network.dyn_peer[258] 	lookupTimeSig:mean 	1.2875
scalar Network.dyn_peer[258] 	lookupStabilitySig:mean 	0.72351505886763
scalar Network.dyn_peer[258] 	lookupHopsSig:mean 	12
scalar Network.dyn_peer[259] 	lookupTimeSig:mean 	4.1666666666667
scalar Network.dyn_peer[259] 	lookupStabilitySig:mean 	0.40133926769098
scalar Network.dyn_peer[259] 	lookupHopsSig:mean 	41
scalar Network.dyn_peer[260] 	lookupTimeSig:mean 	2.55
scalar Network.dyn_peer[260] 	lookupStabilitySig:mean 	0.89980930788442
scalar Network.dyn_peer[260] 	lookupHopsSig:mean 	24.75
scalar Network.dyn_peer[261] 	lookupTimeSig:mean 	1.925
scalar Network.dyn_peer[261] 	lookupStabilitySig:mean 	0.69491752702743
scalar Network.dyn_peer[261] 	lookupHopsSig:mean 	18.5
scalar Network.dyn_peer[262] 	lookupTimeSig:mean 	1.275
scalar Network.dyn_peer[262] 	lookupStabilitySig:mean 	0.78095905936789
scalar Network.dyn_peer[262] 	lookupHopsSig:mean 	11.875
scalar Network.dyn_peer[263] 	lookupTimeSig:mean 	2.06
scalar Network.dyn_peer[263] 	lookupStabilitySig:mean 	0.83500469140708
scalar Network.dyn_peer[263] 	lookupHopsSig:mean 	19.7
scalar Network.dyn_peer[264] 	lookupTimeSig:mean 	1.6727272727273
scalar Network.dyn_peer[264] 	lookupStabilitySig:mean 	0.91123810241168
scalar Network.dyn_peer[264] 	lookupHopsSig:mean 	15.818181818182
scalar Network.dyn_peer[265] 	lookupTimeSig:mean 	4.65
scalar Network.dyn_peer[265] 	lookupStabilitySig:mean 	0.54706235229969
scalar Network.dyn_peer[265] 	lookupHopsSig:mean 	46
scalar Network.dyn_peer[266] 	lookupTimeSig:mean 	1.8
scalar Network.dyn_peer[266] 	lookupStabilitySig:mean 	0.93736631365027
scalar Network.dyn_peer[266] 	lookupHopsSig:mean 	17.125
scalar Network.dyn_peer[267] 	lookupTimeSig:mean 	1.7714285714286
scalar Network.dyn_peer[267] 	lookupStabilitySig:mean 	0.7511170857719
scalar Network.dyn_peer[267] 	lookupHopsSig:mean 	16.857142857143
scalar Network.dyn_peer[268] 	lookupTimeSig:mean 	2.1
scalar Network.dyn_peer[268] 	lookupStabilitySig:mean 	0.92989778518677
scalar Network.dyn_peer[268] 	lookupHopsSig:mean 	20.125
scalar Network.dyn_peer[269] 	lookupTimeSig:mean 	1.95
scalar Network.dyn_peer[269] 	lookupStabilitySig:mean 	0.19202899932861
scalar Network.dyn_peer[269] 	lookupHopsSig:mean 	19
scalar Network.dyn_peer[270] 	lookupTimeSig:mean 	2.0625
scalar Network.dyn_peer[270] 	lookupStabilitySig:mean 	0.84280680329539
scalar Network.dyn_peer[270] 	lookupHopsSig:mean 	19.75
scalar Network.dyn_peer[271] 	lookupTimeSig:mean 	1.98
scalar Network.dyn_peer[271] 	lookupStabilitySig:mean 	0.66257172226906
scalar Network.dyn_peer[271] 	lookupHopsSig:mean 	19
scalar Network.dyn_peer[272] 	lookupTimeSig:mean 	1.7666666666667
scalar Network.dyn_peer[272] 	lookupStabilitySig:mean 	0.89226961291085
scalar Network.dyn_peer[272] 	lookupHopsSig:mean 	16.777777777778
scalar Network.dyn_peer[273] 	lookupTimeSig:mean 	1.3333333333333
scalar Network.dyn_peer[273] 	lookupStabilitySig:mean 	0.92556207254529
scalar Network.dyn_peer[273] 	lookupHopsSig:mean 	12.444444444444
scalar Network.dyn_peer[274] 	lookupTimeSig:mean 	1.2666666666667
scalar Network.dyn_peer[274] 	lookupStabilitySig:mean 	0.63345797359943
scalar Network.dyn_peer[274] 	lookupHopsSig:mean 	12
scalar Network.dyn_peer[275] 	lookupTimeSig:mean 	1.725
scalar Network.dyn_peer[275] 	lookupStabilitySig:mean 	0.7680160375312
scalar Network.dyn_peer[275] 	lookupHopsSig:mean 	16.5
scalar Network.dyn_peer[276] 	lookupTimeSig:mean 	2.0857142857143
scalar Network.dyn_peer[276] 	lookupStabilitySig:mean 	0.78858899022453
scalar Network.dyn_peer[276] 	lookupHopsSig:mean 	20
scalar Network.dyn_peer[277] 	lookupTimeSig:mean 	3.6
scalar Network.dyn_peer[277] 	lookupStabilitySig:mean 	0.57717390358448
scalar Network.dyn_peer[277] 	lookupHopsSig:mean 	35.5
scalar Network.dyn_peer[278] 	lookupTimeSig:mean 	2.35
scalar Network.dyn_peer[278] 	lookupStabilitySig:mean 	0.74094127242764
scalar Network.dyn_peer[278] 	lookupHopsSig:mean 	22.666666666667
scalar Network.dyn_peer[279] 	lookupTimeSig:mean 	1.3375
scalar Network.dyn_peer[279] 	lookupStabilitySig:mean 	0.75875848578289
scalar Network.dyn_peer[279] 	lookupHopsSig:mean 	12.5
scalar Network.dyn_peer[280] 	lookupTimeSig:mean 	2.65
scalar Network.dyn_peer[280] 	lookupStabilitySig:mean 	0.92897137704616
scalar Network.dyn_peer[280] 	lookupHopsSig:mean 	25.666666666667
scalar Network.dyn_peer[281] 	lookupTimeSig:mean 	2.8
scalar Network.dyn_peer[281] 	lookupStabilitySig:mean 	0.60855814814568
scalar Network.dyn_peer[281] 	lookupHopsSig:mean 	27.2
scalar Network.dyn_peer[282] 	lookupTimeSig:mean 	0.96666666666667
scalar Network.dyn_peer[282] 	lookupStabilitySig:mean 	0.31031745175521
scalar Network.dyn_peer[282] 	lookupHopsSig:mean 	9
scalar Network.dyn_peer[283] 	lookupTimeSig:mean 	1.55
scalar Network.dyn_peer[283] 	lookupStabilitySig:mean 	0.70640827156603
scalar Network.dyn_peer[283] 	lookupHopsSig:mean 	14.666666666667
scalar Network.dyn_peer[284] 	lookupTimeSig:mean 	1.225
scalar Network.dyn_peer[284] 	lookupStabilitySig:mean 	0.45115545205772
scalar Network.dyn_peer[284] 	lookupHopsSig:mean 	11.5
scalar Network.dyn_peer[285] 	lookupTimeSig:mean 	3.6333333333333
scalar Network.dyn_peer[285] 	lookupStabilitySig:mean 	0.78668582439423
scalar Network.dyn_peer[285] 	lookupHopsSig:mean 	35.666666666667
scalar Network.dyn_peer[286] 	lookupTimeSig:mean 	1.24
scalar Network.dyn_peer[286] 	lookupStabilitySig:mean 	0.82021560780704
scalar Network.dyn_peer[286] 	lookupHopsSig:mean 	11.6
scalar Network.dyn_peer[287] 	lookupTimeSig:mean 	1.5
scalar Network.dyn_peer[287] 	lookupStabilitySig:mean 	0.66441234126687
scalar Network.dyn_peer[287] 	lookupHopsSig:mean 	14.2
scalar Network.dyn_peer[288] 	lookupTimeSig:mean 	3.15
scalar Network.dyn_peer[288] 	lookupStabilitySig:mean 	0.93299412471242
scalar Network.dyn_peer[288] 	lookupHopsSig:mean 	30.75
scalar Network.dyn_peer[289] 	lookupTimeSig:mean 	1.6142857142857
scalar Network.dyn_peer[289] 	lookupStabilitySig:mean 	0.81166191631928
scalar Network.dyn_peer[289] 	lookupHopsSig:mean 	15.285714285714
scalar Network.dyn_peer[290] 	lookupTimeSig:mean 	1.4625
scalar Network.dyn_peer[290] 	lookupStabilitySig:mean 	0.79095374420285
scalar Network.dyn_peer[290] 	lookupHopsSig:mean 	13.75
scalar Network.dyn_peer[291] 	lookupTimeSig:mean 	1.6
scalar Network.dyn_peer[291] 	lookupStabilitySig:mean 	0.64709692168981
scalar Network.dyn_peer[291] 	lookupHopsSig:mean 	15.166666666667
scalar Network.dyn_peer[292] 	lookupTimeSig:mean 	2.2714285714286
scalar Network.dyn_peer[292] 	lookupStabilitySig:mean 	0.8386686073084
scalar Network.dyn_peer[292] 	lookupHopsSig:mean 	21.857142857143
scalar Network.dyn_peer[293] 	lookupTimeSig:mean 	0.85
scalar Network.dyn_peer[293] 	lookupStabilitySig:mean 	0.52417781902477
scalar Network.dyn_peer[293] 	lookupHopsSig:mean 	7.75
scalar Network.dyn_peer[294] 	lookupTimeSig:mean 	1.95
scalar Network.dyn_peer[294] 	lookupStabilitySig:mean 	0.60278683714569
scalar Network.dyn_peer[294] 	lookupHopsSig:mean 	18.75
scalar Network.dyn_peer[295] 	lookupTimeSig:mean 	1.9272727272727
scalar Network.dyn_peer[295] 	lookupStabilitySig:mean 	0.95328971201723
scalar Network.dyn_peer[295] 	lookupHopsSig:mean 	18.363636363636
scalar Network.dyn_peer[296] 	lookupTimeSig:mean 	1.05
scalar Network.dyn_peer[296] 	lookupStabilitySig:mean 	0.10833331942558
scalar Network.dyn_peer[296] 	lookupHopsSig:mean 	10
scalar Network.dyn_peer[297] 	lookupTimeSig:mean 	1.6090909090909
scalar Network.dyn_peer[297] 	lookupStabilitySig:mean 	0.96334974119567
scalar Network.dyn_peer[297] 	lookupHopsSig:mean 	15.181818181818
scalar Network.dyn_peer[298] 	lookupTimeSig:mean 	0.95
scalar Network.dyn_peer[298] 	lookupStabilitySig:mean 	0.5793706253171
scalar Network.dyn_peer[298] 	lookupHopsSig:mean 	8.75
scalar Network.dyn_peer[299] 	lookupTimeSig:mean 	1.32
scalar Network.dyn_peer[299] 	lookupStabilitySig:mean 	0.6410671249032
scalar Network.dyn_peer[299] 	lookupHopsSig:mean 	12.4
scalar Network.dyn_peer[300] 	lookupTimeSig:mean 	3
scalar Network.dyn_peer[300] 	lookupStabilitySig:mean 	0.627240697667
scalar Network.dyn_peer[300] 	lookupHopsSig:mean 	29.2
scalar Network.dyn_peer[301] 	lookupTimeSig:mean 	5.2
scalar Network.dyn_peer[301] 	lookupStabilitySig:mean 	0.5604774877429
scalar Network.dyn_peer[301] 	lookupHopsSig:mean 	51.5
scalar Network.dyn_peer[302] 	lookupTimeSig:mean 	2.4
scalar Network.dyn_peer[302] 	lookupStabilitySig:mean 	0.60670200735331
scalar Network.dyn_peer[302] 	lookupHopsSig:mean 	23.25
scalar Network.dyn_peer[303] 	lookupTimeSig:mean 	1.8
scalar Network.dyn_peer[303] 	lookupStabilitySig:mean 	0.62155475219091
scalar Network.dyn_peer[303] 	lookupHopsSig:mean 	17.333333333333
scalar Network.dyn_peer[304] 	lookupTimeSig:mean 	2.16
scalar Network.dyn_peer[304] 	lookupStabilitySig:mean 	0.78967370223254
scalar Network.dyn_peer[304] 	lookupHopsSig:mean 	20.8
scalar Network.dyn_peer[305] 	lookupTimeSig:mean 	1.8857142857143
scalar Network.dyn_peer[305] 	lookupStabilitySig:mean 	0.94017346848601
scalar Network.dyn_peer[305] 	lookupHopsSig:mean 	18
scalar Network.dyn_peer[306] 	lookupTimeSig:mean 	1.5666666666667
scalar Network.dyn_peer[306] 	lookupStabilitySig:mean 	0.78214493673295
scalar Network.dyn_peer[306] 	lookupHopsSig:mean 	14.833333333333
scalar Network.dyn_peer[307] 	lookupTimeSig:mean 	1.1
scalar Network.dyn_peer[307] 	lookupStabilitySig:mean 	0.59166666567326
scalar Network.dyn_peer[307] 	lookupHopsSig:mean 	10.2
scalar Network.dyn_peer[308] 	lookupTimeSig:mean 	2.7
scalar Network.dyn_peer[308] 	lookupStabilitySig:mean 	0.94673717500908
scalar Network.dyn_peer[308] 	lookupHopsSig:mean 	26.142857142857
scalar Network.dyn_peer[309] 	lookupTimeSig:mean 	2.05
scalar Network.dyn_peer[309] 	lookupStabilitySig:mean 	0.563103556633
scalar Network.dyn_peer[309] 	lookupHopsSig:mean 	20
scalar Network.dyn_peer[310] 	lookupTimeSig:mean 	1.4444444444444
scalar Network.dyn_peer[310] 	lookupStabilitySig:mean 	0.79991732832665
scalar Network.dyn_peer[310] 	lookupHopsSig:mean 	13.555555555556
scalar Network.dyn_peer[311] 	lookupTimeSig:mean 	2.2
scalar Network.dyn_peer[311] 	lookupStabilitySig:mean 	0.75865419302136
scalar Network.dyn_peer[311] 	lookupHopsSig:mean 	21.25
scalar Network.dyn_peer[312] 	lookupTimeSig:mean 	1.3454545454545
scalar Network.dyn_peer[312] 	lookupStabilitySig:mean 	0.81466974847188
scalar Network.dyn_peer[312] 	lookupHopsSig:mean 	12.545454545455
scalar Network.dyn_peer[313] 	lookupTimeSig:mean 	3.1
scalar Network.dyn_peer[313] 	lookupStabilitySig:mean 	0.5036458298564
scalar Network.dyn_peer[313] 	lookupHopsSig:mean 	30.5
scalar Network.dyn_peer[314] 	lookupTimeSig:mean 	2.05
scalar Network.dyn_peer[314] 	lookupStabilitySig:mean 	0.73100329873463
scalar Network.dyn_peer[314] 	lookupHopsSig:mean 	19.666666666667
scalar Network.dyn_peer[315] 	lookupTimeSig:mean 	1.2266666666667
scalar Network.dyn_peer[315] 	lookupStabilitySig:mean 	0.84887977753145
scalar Network.dyn_peer[315] 	lookupHopsSig:mean 	11.333333333333
scalar Network.dyn_peer[316] 	lookupTimeSig:mean 	1.35
scalar Network.dyn_peer[316] 	lookupStabilitySig:mean 	0.47567568719387
scalar Network.dyn_peer[316] 	lookupHopsSig:mean 	13
scalar Network.dyn_peer[317] 	lookupTimeSig:mean 	1.3142857142857
scalar Network.dyn_peer[317] 	lookupStabilitySig:mean 	0.91875833153192
scalar Network.dyn_peer[317] 	lookupHopsSig:mean 	12.214285714286
scalar Network.dyn_peer[318] 	lookupTimeSig:mean 	1.3833333333333
scalar Network.dyn_peer[318] 	lookupStabilitySig:mean 	0.6689268698295
scalar Network.dyn_peer[318] 	lookupHopsSig:mean 	13
scalar Network.dyn_peer[319] 	lookupTimeSig:mean 	1.17
scalar Network.dyn_peer[319] 	lookupStabilitySig:mean 	0.80912730144337
scalar Network.dyn_peer[319] 	lookupHopsSig:mean 	10.8
scalar Network.dyn_peer[320] 	lookupTimeSig:mean 	1.6833333333333
scalar Network.dyn_peer[320] 	lookupStabilitySig:mean 	0.8351780056643
scalar Network.dyn_peer[320] 	lookupHopsSig:mean 	16
scalar Network.dyn_peer[321] 	lookupTimeSig:mean 	2.1625
scalar Network.dyn_peer[321] 	lookupStabilitySig:mean 	0.92053057998419
scalar Network.dyn_peer[321] 	lookupHopsSig:mean 	20.75
scalar Network.dyn_peer[322] 	lookupTimeSig:mean 	1.6090909090909
scalar Network.dyn_peer[322] 	lookupStabilitySig:mean 	0.83431524005507
scalar Network.dyn_peer[322] 	lookupHopsSig:mean 	15.181818181818
scalar Network.dyn_peer[323] 	lookupTimeSig:mean 	1.6
scalar Network.dyn_peer[323] 	lookupStabilitySig:mean 	0.83710262396683
scalar Network.dyn_peer[323] 	lookupHopsSig:mean 	15.166666666667
scalar Network.dyn_peer[324] 	lookupTimeSig:mean 	1.98
scalar Network.dyn_peer[324] 	lookupStabilitySig:mean 	0.63679699897766
scalar Network.dyn_peer[324] 	lookupHopsSig:mean 	19
scalar Network.dyn_peer[325] 	lookupTimeSig:mean 	1.12
scalar Network.dyn_peer[325] 	lookupStabilitySig:mean 	0.59235293120146
scalar Network.dyn_peer[325] 	lookupHopsSig:mean 	10.4
scalar Network.dyn_peer[326] 	lookupTimeSig:mean 	2.4333333333333
scalar Network.dyn_peer[326] 	lookupStabilitySig:mean 	0.85804585072522
scalar Network.dyn_peer[326] 	lookupHopsSig:mean 	23.5
scalar Network.dyn_peer[327] 	lookupTimeSig:mean 	1.4166666666667
scalar Network.dyn_peer[327] 	lookupStabilitySig:mean 	0.71269761646787
scalar Network.dyn_peer[327] 	lookupHopsSig:mean 	13.333333333333
scalar Network.dyn_peer[328] 	lookupTimeSig:mean 	1.45
scalar Network.dyn_peer[328] 	lookupStabilitySig:mean 	0.55524227581918
scalar Network.dyn_peer[328] 	lookupHopsSig:mean 	13.75
scalar Network.dyn_peer[329] 	lookupTimeSig:mean 	1.6
scalar Network.dyn_peer[329] 	lookupStabilitySig:mean 	0.63687248776356
scalar Network.dyn_peer[329] 	lookupHopsSig:mean 	15.333333333333
scalar Network.dyn_peer[330] 	lookupTimeSig:mean 	2.0666666666667
scalar Network.dyn_peer[330] 	lookupStabilitySig:mean 	0.71221162502964
scalar Network.dyn_peer[330] 	lookupHopsSig:mean 	20
scalar Network.dyn_peer[331] 	lookupTimeSig:mean 	3.15
scalar Network.dyn_peer[331] 	lookupStabilitySig:mean 	0.3638613820076
scalar Network.dyn_peer[331] 	lookupHopsSig:mean 	31
scalar Network.dyn_peer[332] 	lookupTimeSig:mean 	2.525
scalar Network.dyn_peer[332] 	lookupStabilitySig:mean 	0.59798589162529
scalar Network.dyn_peer[332] 	lookupHopsSig:mean 	24.5
scalar Network.dyn_peer[333] 	lookupTimeSig:mean 	0.9125
scalar Network.dyn_peer[333] 	lookupStabilitySig:mean 	0.79323046584614
scalar Network.dyn_peer[333] 	lookupHopsSig:mean 	8.25
scalar Network.dyn_peer[334] 	lookupTimeSig:mean 	2
scalar Network.dyn_peer[334] 	lookupStabilitySig:mean 	0.38271880149841
scalar Network.dyn_peer[334] 	lookupHopsSig:mean 	19.333333333333
scalar Network.dyn_peer[335] 	lookupTimeSig:mean 	1.4363636363636
scalar Network.dyn_peer[335] 	lookupStabilitySig:mean 	0.81465466769243
scalar Network.dyn_peer[335] 	lookupHopsSig:mean 	13.454545454545
scalar Network.dyn_peer[336] 	lookupTimeSig:mean 	1.825
scalar Network.dyn_peer[336] 	lookupStabilitySig:mean 	0.89038471132517
scalar Network.dyn_peer[336] 	lookupHopsSig:mean 	17.375
scalar Network.dyn_peer[337] 	lookupTimeSig:mean 	2.775
scalar Network.dyn_peer[337] 	lookupStabilitySig:mean 	0.68172591878101
scalar Network.dyn_peer[337] 	lookupHopsSig:mean 	27
scalar Network.dyn_peer[338] 	lookupTimeSig:mean 	1.0857142857143
scalar Network.dyn_peer[338] 	lookupStabilitySig:mean 	0.81425737523075
scalar Network.dyn_peer[338] 	lookupHopsSig:mean 	10
scalar Network.dyn_peer[339] 	lookupTimeSig:mean 	1.6166666666667
scalar Network.dyn_peer[339] 	lookupStabilitySig:mean 	0.87301563828563
scalar Network.dyn_peer[339] 	lookupHopsSig:mean 	15.333333333333
scalar Network.dyn_peer[340] 	lookupTimeSig:mean 	1.65
scalar Network.dyn_peer[340] 	lookupStabilitySig:mean 	0.65768547588959
scalar Network.dyn_peer[340] 	lookupHopsSig:mean 	15.75
scalar Network.dyn_peer[341] 	lookupTimeSig:mean 	1.6
scalar Network.dyn_peer[341] 	lookupStabilitySig:mean 	0.91208654281218
scalar Network.dyn_peer[341] 	lookupHopsSig:mean 	15.125
scalar Network.dyn_peer[342] 	lookupTimeSig:mean 	1.9230769230769
scalar Network.dyn_peer[342] 	lookupStabilitySig:mean 	0.93782489259656
scalar Network.dyn_peer[342] 	lookupHopsSig:mean 	18.307692307692
scalar Network.dyn_peer[343] 	lookupTimeSig:mean 	2.2333333333333
scalar Network.dyn_peer[343] 	lookupStabilitySig:mean 	0.64757136752208
scalar Network.dyn_peer[343] 	lookupHopsSig:mean 	21.666666666667
scalar Network.dyn_peer[344] 	lookupTimeSig:mean 	2.4571428571429
scalar Network.dyn_peer[344] 	lookupStabilitySig:mean 	0.95868419842528
scalar Network.dyn_peer[344] 	lookupHopsSig:mean 	23.714285714286
scalar Network.dyn_peer[345] 	lookupTimeSig:mean 	1.15
scalar Network.dyn_peer[345] 	lookupStabilitySig:mean 	0.52521247416735
scalar Network.dyn_peer[345] 	lookupHopsSig:mean 	10.75
scalar Network.dyn_peer[346] 	lookupTimeSig:mean 	1.7076923076923
scalar Network.dyn_peer[346] 	lookupStabilitySig:mean 	0.84489196589073
scalar Network.dyn_peer[346] 	lookupHopsSig:mean 	16.153846153846
scalar Network.dyn_peer[347] 	lookupTimeSig:mean 	3.48
scalar Network.dyn_peer[347] 	lookupStabilitySig:mean 	0.92769064698368
scalar Network.dyn_peer[347] 	lookupHopsSig:mean 	34
scalar Network.dyn_peer[348] 	lookupTimeSig:mean 	1.7333333333333
scalar Network.dyn_peer[348] 	lookupStabilitySig:mean 	0.68409199391802
scalar Network.dyn_peer[348] 	lookupHopsSig:mean 	16.666666666667
scalar Network.dyn_peer[349] 	lookupTimeSig:mean 	1.3714285714286
scalar Network.dyn_peer[349] 	lookupStabilitySig:mean 	0.86274599283934
scalar Network.dyn_peer[349] 	lookupHopsSig:mean 	12.857142857143
scalar Network.dyn_peer[350] 	lookupTimeSig:mean 	2
scalar Network.dyn_peer[350] 	lookupStabilitySig:mean 	0.69177930677931
scalar Network.dyn_peer[350] 	lookupHopsSig:mean 	19.166666666667
scalar Network.dyn_peer[351] 	lookupTimeSig:mean 	2.3666666666667
scalar Network.dyn_peer[351] 	lookupStabilitySig:mean 	0.79083108777801
scalar Network.dyn_peer[351] 	lookupHopsSig:mean 	23
scalar Network.dyn_peer[352] 	lookupTimeSig:mean 	1.8
scalar Network.dyn_peer[352] 	lookupStabilitySig:mean 	0.43080807228883
scalar Network.dyn_peer[352] 	lookupHopsSig:mean 	17.333333333333
scalar Network.dyn_peer[353] 	lookupTimeSig:mean 	1.6090909090909
scalar Network.dyn_peer[353] 	lookupStabilitySig:mean 	0.84256894437766
scalar Network.dyn_peer[353] 	lookupHopsSig:mean 	15.181818181818
scalar Network.dyn_peer[354] 	lookupTimeSig:mean 	1.7
scalar Network.dyn_peer[354] 	lookupStabilitySig:mean 	0.8210078223298
scalar Network.dyn_peer[354] 	lookupHopsSig:mean 	16.111111111111
scalar Network.dyn_peer[355] 	lookupTimeSig:mean 	1.7071428571429
scalar Network.dyn_peer[355] 	lookupStabilitySig:mean 	0.87455785327724
scalar Network.dyn_peer[355] 	lookupHopsSig:mean 	16.142857142857
scalar Network.dyn_peer[356] 	lookupTimeSig:mean 	2.3666666666667
scalar Network.dyn_peer[356] 	lookupStabilitySig:mean 	0.50758341451486
scalar Network.dyn_peer[356] 	lookupHopsSig:mean 	23
scalar Network.dyn_peer[357] 	lookupTimeSig:mean 	2.425
scalar Network.dyn_peer[357] 	lookupStabilitySig:mean 	0.52271303161979
scalar Network.dyn_peer[357] 	lookupHopsSig:mean 	23.5
scalar Network.dyn_peer[358] 	lookupTimeSig:mean 	1.4
scalar Network.dyn_peer[358] 	lookupStabilitySig:mean 	0.76399802323431
scalar Network.dyn_peer[358] 	lookupHopsSig:mean 	13.25
scalar Network.dyn_peer[359] 	lookupTimeSig:mean 	1.65
scalar Network.dyn_peer[359] 	lookupStabilitySig:mean 	0.58649016916752
scalar Network.dyn_peer[359] 	lookupHopsSig:mean 	15.75
scalar Network.dyn_peer[360] 	lookupTimeSig:mean 	1.225
scalar Network.dyn_peer[360] 	lookupStabilitySig:mean 	0.88972170633497
scalar Network.dyn_peer[360] 	lookupHopsSig:mean 	11.375
scalar Network.dyn_peer[361] 	lookupTimeSig:mean 	2.3
scalar Network.dyn_peer[361] 	lookupStabilitySig:mean 	0.94823513120147
scalar Network.dyn_peer[361] 	lookupHopsSig:mean 	22.142857142857
scalar Network.dyn_peer[362] 	lookupTimeSig:mean 	1.525
scalar Network.dyn_peer[362] 	lookupStabilitySig:mean 	0.79864953272045
scalar Network.dyn_peer[362] 	lookupHopsSig:mean 	14.5
scalar Network.dyn_peer[363] 	lookupTimeSig:mean 	1.4
scalar Network.dyn_peer[363] 	lookupStabilitySig:mean 	0.88470751722343
scalar Network.dyn_peer[363] 	lookupHopsSig:mean 	13.125
scalar Network.dyn_peer[364] 	lookupTimeSig:mean 	3.15
scalar Network.dyn_peer[364] 	lookupStabilitySig:mean 	0.61356019414961
scalar Network.dyn_peer[364] 	lookupHopsSig:mean 	30.75
scalar Network.dyn_peer[365] 	lookupTimeSig:mean 	1.7375
scalar Network.dyn_peer[365] 	lookupStabilitySig:mean 	0.93878730299184
scalar Network.dyn_peer[365] 	lookupHopsSig:mean 	16.5
scalar Network.dyn_peer[366] 	lookupTimeSig:mean 	1.5285714285714
scalar Network.dyn_peer[366] 	lookupStabilitySig:mean 	0.82854569849691
scalar Network.dyn_peer[366] 	lookupHopsSig:mean 	14.428571428571
scalar Network.dyn_peer[367] 	lookupTimeSig:mean 	2.425
scalar Network.dyn_peer[367] 	lookupStabilitySig:mean 	0.8479833593592
scalar Network.dyn_peer[367] 	lookupHopsSig:mean 	23.5
scalar Network.dyn_peer[368] 	lookupTimeSig:mean 	0.63333333333333
scalar Network.dyn_peer[368] 	lookupStabilitySig:mean 	0.43888887763023
scalar Network.dyn_peer[368] 	lookupHopsSig:mean 	5.6666666666667
scalar Network.dyn_peer[369] 	lookupTimeSig:mean 	2.075
scalar Network.dyn_peer[369] 	lookupStabilitySig:mean 	0.49047655239701
scalar Network.dyn_peer[369] 	lookupHopsSig:mean 	20
scalar Network.dyn_peer[370] 	lookupTimeSig:mean 	2.35
scalar Network.dyn_peer[370] 	lookupStabilitySig:mean 	0.51159793883562
scalar Network.dyn_peer[370] 	lookupHopsSig:mean 	23
scalar Network.dyn_peer[371] 	lookupTimeSig:mean 	1.8857142857143
scalar Network.dyn_peer[371] 	lookupStabilitySig:mean 	0.9135422028069
scalar Network.dyn_peer[371] 	lookupHopsSig:mean 	18
scalar Network.dyn_peer[372] 	lookupTimeSig:mean 	2.1857142857143
scalar Network.dyn_peer[372] 	lookupStabilitySig:mean 	0.91337676106819
scalar Network.dyn_peer[372] 	lookupHopsSig:mean 	21
scalar Network.dyn_peer[373] 	lookupTimeSig:mean 	1.14
scalar Network.dyn_peer[373] 	lookupStabilitySig:mean 	0.68195218667388
scalar Network.dyn_peer[373] 	lookupHopsSig:mean 	10.6
scalar Network.dyn_peer[374] 	lookupTimeSig:mean 	3.4
scalar Network.dyn_peer[374] 	lookupStabilitySig:mean 	0.77316599090894
scalar Network.dyn_peer[374] 	lookupHopsSig:mean 	33.333333333333
scalar Network.dyn_peer[375] 	lookupTimeSig:mean 	2.35
scalar Network.dyn_peer[375] 	lookupStabilitySig:mean 	0.63137755170465
scalar Network.dyn_peer[375] 	lookupHopsSig:mean 	23
scalar Network.dyn_peer[376] 	lookupTimeSig:mean 	2.18
scalar Network.dyn_peer[376] 	lookupStabilitySig:mean 	0.71651211697608
scalar Network.dyn_peer[376] 	lookupHopsSig:mean 	21
scalar Network.dyn_peer[377] 	lookupTimeSig:mean 	2.82
scalar Network.dyn_peer[377] 	lookupStabilitySig:mean 	0.93588916324079
scalar Network.dyn_peer[377] 	lookupHopsSig:mean 	27.4
scalar Network.dyn_peer[378] 	lookupTimeSig:mean 	1.55
scalar Network.dyn_peer[378] 	lookupStabilitySig:mean 	0.7551186355995
scalar Network.dyn_peer[378] 	lookupHopsSig:mean 	14.625
scalar Network.dyn_peer[379] 	lookupTimeSig:mean 	1.3375
scalar Network.dyn_peer[379] 	lookupStabilitySig:mean 	0.86684740940109
scalar Network.dyn_peer[379] 	lookupHopsSig:mean 	12.5
scalar Network.dyn_peer[380] 	lookupTimeSig:mean 	1.4571428571429
scalar Network.dyn_peer[380] 	lookupStabilitySig:mean 	0.86957578374339
scalar Network.dyn_peer[380] 	lookupHopsSig:mean 	13.714285714286
scalar Network.dyn_peer[381] 	lookupTimeSig:mean 	2.15
scalar Network.dyn_peer[381] 	lookupStabilitySig:mean 	0.3897058814764
scalar Network.dyn_peer[381] 	lookupHopsSig:mean 	21
scalar Network.dyn_peer[382] 	lookupTimeSig:mean 	1.62
scalar Network.dyn_peer[382] 	lookupStabilitySig:mean 	0.91383486595005
scalar Network.dyn_peer[382] 	lookupHopsSig:mean 	15.266666666667
scalar Network.dyn_peer[383] 	lookupTimeSig:mean 	2.4666666666667
scalar Network.dyn_peer[383] 	lookupStabilitySig:mean 	0.69698637972275
scalar Network.dyn_peer[383] 	lookupHopsSig:mean 	24
scalar Network.dyn_peer[384] 	lookupTimeSig:mean 	1.625
scalar Network.dyn_peer[384] 	lookupStabilitySig:mean 	0.58789681456983
scalar Network.dyn_peer[384] 	lookupHopsSig:mean 	15.5
scalar Network.dyn_peer[385] 	lookupTimeSig:mean 	3.62
scalar Network.dyn_peer[385] 	lookupStabilitySig:mean 	0.94038025140762
scalar Network.dyn_peer[385] 	lookupHopsSig:mean 	35.4
scalar Network.dyn_peer[386] 	lookupTimeSig:mean 	1.2
scalar Network.dyn_peer[386] 	lookupStabilitySig:mean 	0.79610356665216
scalar Network.dyn_peer[386] 	lookupHopsSig:mean 	11.125
scalar Network.dyn_peer[387] 	lookupTimeSig:mean 	1.5
scalar Network.dyn_peer[387] 	lookupStabilitySig:mean 	0.66528931632638
scalar Network.dyn_peer[387] 	lookupHopsSig:mean 	14.166666666667
scalar Network.dyn_peer[388] 	lookupTimeSig:mean 	3.45
scalar Network.dyn_peer[388] 	lookupStabilitySig:mean 	0.66784267127514
scalar Network.dyn_peer[388] 	lookupHopsSig:mean 	34
scalar Network.dyn_peer[389] 	lookupTimeSig:mean 	1.6090909090909
scalar Network.dyn_peer[389] 	lookupStabilitySig:mean 	0.84349475373429
scalar Network.dyn_peer[389] 	lookupHopsSig:mean 	15.181818181818
scalar Network.dyn_peer[390] 	lookupTimeSig:mean 	2.26
scalar Network.dyn_peer[390] 	lookupStabilitySig:mean 	0.84880846142769
scalar Network.dyn_peer[390] 	lookupHopsSig:mean 	21.8
scalar Network.dyn_peer[391] 	lookupTimeSig:mean 	3.5
scalar Network.dyn_peer[391] 	lookupStabilitySig:mean 	0.76938093950351
scalar Network.dyn_peer[391] 	lookupHopsSig:mean 	34.333333333333
scalar Network.dyn_peer[392] 	lookupTimeSig:mean 	4.1333333333333
scalar Network.dyn_peer[392] 	lookupStabilitySig:mean 	0.8082335224996
scalar Network.dyn_peer[392] 	lookupHopsSig:mean 	40.666666666667
scalar Network.dyn_peer[393] 	lookupTimeSig:mean 	1.59
scalar Network.dyn_peer[393] 	lookupStabilitySig:mean 	0.95160709297052
scalar Network.dyn_peer[393] 	lookupHopsSig:mean 	15
scalar Network.dyn_peer[394] 	lookupTimeSig:mean 	1.625
scalar Network.dyn_peer[394] 	lookupStabilitySig:mean 	0.63417431432754
scalar Network.dyn_peer[394] 	lookupHopsSig:mean 	15.5
scalar Network.dyn_peer[395] 	lookupTimeSig:mean 	2.4857142857143
scalar Network.dyn_peer[395] 	lookupStabilitySig:mean 	0.92795853489744
scalar Network.dyn_peer[395] 	lookupHopsSig:mean 	24
scalar Network.dyn_peer[396] 	lookupTimeSig:mean 	1.55
scalar Network.dyn_peer[396] 	lookupStabilitySig:mean 	0.55437779705971
scalar Network.dyn_peer[396] 	lookupHopsSig:mean 	14.75
scalar Network.dyn_peer[397] 	lookupTimeSig:mean 	2.1555555555556
scalar Network.dyn_peer[397] 	lookupStabilitySig:mean 	0.88418688438833
scalar Network.dyn_peer[397] 	lookupHopsSig:mean 	20.666666666667
scalar Network.dyn_peer[398] 	lookupTimeSig:mean 	1.3454545454545
scalar Network.dyn_peer[398] 	lookupStabilitySig:mean 	0.83157079086893
scalar Network.dyn_peer[398] 	lookupHopsSig:mean 	12.545454545455
scalar Network.dyn_peer[399] 	lookupTimeSig:mean 	1.4125
scalar Network.dyn_peer[399] 	lookupStabilitySig:mean 	0.82072109205183
scalar Network.dyn_peer[399] 	lookupHopsSig:mean 	13.25
scalar Network.dyn_peer[400] 	lookupTimeSig:mean 	1.4
scalar Network.dyn_peer[400] 	lookupStabilitySig:mean 	0.74571506399661
scalar Network.dyn_peer[400] 	lookupHopsSig:mean 	13.142857142857
scalar Network.dyn_peer[401] 	lookupTimeSig:mean 	1.3333333333333
scalar Network.dyn_peer[401] 	lookupStabilitySig:mean 	0.79272404820141
scalar Network.dyn_peer[401] 	lookupHopsSig:mean 	12.444444444444
scalar Network.dyn_peer[402] 	lookupTimeSig:mean 	1.7285714285714
scalar Network.dyn_peer[402] 	lookupStabilitySig:mean 	0.83884967451117
scalar Network.dyn_peer[402] 	lookupHopsSig:mean 	16.428571428571
scalar Network.dyn_peer[403] 	lookupTimeSig:mean 	1.8833333333333
scalar Network.dyn_peer[403] 	lookupStabilitySig:mean 	0.93901125853881
scalar Network.dyn_peer[403] 	lookupHopsSig:mean 	17.916666666667
scalar Network.dyn_peer[404] 	lookupTimeSig:mean 	2.2
scalar Network.dyn_peer[404] 	lookupStabilitySig:mean 	0.69098755065352
scalar Network.dyn_peer[404] 	lookupHopsSig:mean 	21.166666666667
scalar Network.dyn_peer[405] 	lookupTimeSig:mean 	1.9555555555556
scalar Network.dyn_peer[405] 	lookupStabilitySig:mean 	0.89982139567534
scalar Network.dyn_peer[405] 	lookupHopsSig:mean 	18.666666666667
scalar Network.dyn_peer[406] 	lookupTimeSig:mean 	2.4
scalar Network.dyn_peer[406] 	lookupStabilitySig:mean 	0.72021858642499
scalar Network.dyn_peer[406] 	lookupHopsSig:mean 	23.333333333333
scalar Network.dyn_peer[407] 	lookupTimeSig:mean 	1.32
scalar Network.dyn_peer[407] 	lookupStabilitySig:mean 	0.88055616021156
scalar Network.dyn_peer[407] 	lookupHopsSig:mean 	12.3
scalar Network.dyn_peer[408] 	lookupTimeSig:mean 	0.95
scalar Network.dyn_peer[408] 	lookupStabilitySig:mean 	0.58759017661214
scalar Network.dyn_peer[408] 	lookupHopsSig:mean 	8.75
scalar Network.dyn_peer[409] 	lookupTimeSig:mean 	2.1
scalar Network.dyn_peer[409] 	lookupStabilitySig:mean 	0.95689345095307
scalar Network.dyn_peer[409] 	lookupHopsSig:mean 	20.1
scalar Network.dyn_peer[410] 	lookupTimeSig:mean 	1.68
scalar Network.dyn_peer[410] 	lookupStabilitySig:mean 	0.7024928085506
scalar Network.dyn_peer[410] 	lookupHopsSig:mean 	16
scalar Network.dyn_peer[411] 	lookupTimeSig:mean 	1.35
scalar Network.dyn_peer[411] 	lookupStabilitySig:mean 	0.47687553241849
scalar Network.dyn_peer[411] 	lookupHopsSig:mean 	12.75
scalar Network.dyn_peer[412] 	lookupTimeSig:mean 	1.3
scalar Network.dyn_peer[412] 	lookupStabilitySig:mean 	0.54025474687417
scalar Network.dyn_peer[412] 	lookupHopsSig:mean 	12.333333333333
scalar Network.dyn_peer[413] 	lookupTimeSig:mean 	2.5571428571429
scalar Network.dyn_peer[413] 	lookupStabilitySig:mean 	0.89649831450411
scalar Network.dyn_peer[413] 	lookupHopsSig:mean 	24.714285714286
scalar Network.dyn_peer[414] 	lookupTimeSig:mean 	2.575
scalar Network.dyn_peer[414] 	lookupStabilitySig:mean 	0.9071415301878
scalar Network.dyn_peer[414] 	lookupHopsSig:mean 	25
scalar Network.dyn_peer[415] 	lookupTimeSig:mean 	1.6
scalar Network.dyn_peer[415] 	lookupStabilitySig:mean 	0.91863987274054
scalar Network.dyn_peer[415] 	lookupHopsSig:mean 	15.111111111111
scalar Network.dyn_peer[416] 	lookupTimeSig:mean 	1.9333333333333
scalar Network.dyn_peer[416] 	lookupStabilitySig:mean 	0.51020181179047
scalar Network.dyn_peer[416] 	lookupHopsSig:mean 	18.666666666667
scalar Network.dyn_peer[417] 	lookupTimeSig:mean 	1.5166666666667
scalar Network.dyn_peer[417] 	lookupStabilitySig:mean 	0.7657204400748
scalar Network.dyn_peer[417] 	lookupHopsSig:mean 	14.333333333333
scalar Network.dyn_peer[418] 	lookupTimeSig:mean 	1.45
scalar Network.dyn_peer[418] 	lookupStabilitySig:mean 	0.69085359635452
scalar Network.dyn_peer[418] 	lookupHopsSig:mean 	13.666666666667
scalar Network.dyn_peer[419] 	lookupTimeSig:mean 	1.4
scalar Network.dyn_peer[419] 	lookupStabilitySig:mean 	0.74219787244995
scalar Network.dyn_peer[419] 	lookupHopsSig:mean 	13.166666666667
scalar Network.dyn_peer[420] 	lookupTimeSig:mean 	2.58
scalar Network.dyn_peer[420] 	lookupStabilitySig:mean 	0.79664105698466
scalar Network.dyn_peer[420] 	lookupHopsSig:mean 	25
[...]
scalar Network.dyn_peer[895] 	lookupStabilitySig:mean 	0.95542656590364
scalar Network.dyn_peer[895] 	lookupHopsSig:mean 	21
scalar Network.dyn_peer[896] 	lookupTimeSig:mean 	1.975
scalar Network.dyn_peer[896] 	lookupStabilitySig:mean 	0.79408420715481
scalar Network.dyn_peer[896] 	lookupHopsSig:mean 	19
scalar Network.dyn_peer[897] 	lookupTimeSig:mean 	3.0333333333333
scalar Network.dyn_peer[897] 	lookupStabilitySig:mean 	0.84412022680044
scalar Network.dyn_peer[897] 	lookupHopsSig:mean 	29.666666666667
scalar Network.dyn_peer[898] 	lookupTimeSig:mean 	1.14
scalar Network.dyn_peer[898] 	lookupStabilitySig:mean 	0.82279663160443
scalar Network.dyn_peer[898] 	lookupHopsSig:mean 	10.6
scalar Network.dyn_peer[899] 	lookupTimeSig:mean 	2.4333333333333
scalar Network.dyn_peer[899] 	lookupStabilitySig:mean 	0.88472003210336
scalar Network.dyn_peer[899] 	lookupHopsSig:mean 	23.5
scalar Network.dyn_peer[900] 	lookupTimeSig:mean 	1.3
scalar Network.dyn_peer[900] 	lookupStabilitySig:mean 	0.8051533093676
scalar Network.dyn_peer[900] 	lookupHopsSig:mean 	12.166666666667
scalar Network.dyn_peer[901] 	lookupTimeSig:mean 	1.6454545454545
scalar Network.dyn_peer[901] 	lookupStabilitySig:mean 	0.91422163695097
scalar Network.dyn_peer[901] 	lookupHopsSig:mean 	15.545454545455
scalar Network.dyn_peer[902] 	lookupTimeSig:mean 	3.2428571428571
scalar Network.dyn_peer[902] 	lookupStabilitySig:mean 	0.94760397874883
scalar Network.dyn_peer[902] 	lookupHopsSig:mean 	31.571428571429
scalar Network.dyn_peer[903] 	lookupTimeSig:mean 	2.8
scalar Network.dyn_peer[903] 	lookupStabilitySig:mean 	0.79585326462984
scalar Network.dyn_peer[903] 	lookupHopsSig:mean 	27.333333333333
scalar Network.dyn_peer[904] 	lookupTimeSig:mean 	2.1222222222222
scalar Network.dyn_peer[904] 	lookupStabilitySig:mean 	0.93594537375288
scalar Network.dyn_peer[904] 	lookupHopsSig:mean 	20.333333333333
scalar Network.dyn_peer[905] 	lookupTimeSig:mean 	1.325
scalar Network.dyn_peer[905] 	lookupStabilitySig:mean 	0.85901433881372
scalar Network.dyn_peer[905] 	lookupHopsSig:mean 	12.5
scalar Network.dyn_peer[906] 	lookupTimeSig:mean 	3.8
scalar Network.dyn_peer[906] 	lookupStabilitySig:mean 	0.82901415601373
scalar Network.dyn_peer[906] 	lookupHopsSig:mean 	37.5
scalar Network.dyn_peer[907] 	lookupTimeSig:mean 	3.55
scalar Network.dyn_peer[907] 	lookupStabilitySig:mean 	0.63916572928429
scalar Network.dyn_peer[907] 	lookupHopsSig:mean 	35
scalar Network.dyn_peer[908] 	lookupTimeSig:mean 	1.1307692307692
scalar Network.dyn_peer[908] 	lookupStabilitySig:mean 	0.92890124775183
scalar Network.dyn_peer[908] 	lookupHopsSig:mean 	10.384615384615
scalar Network.dyn_peer[909] 	lookupTimeSig:mean 	4
scalar Network.dyn_peer[909] 	lookupStabilitySig:mean 	0.79708225280046
scalar Network.dyn_peer[909] 	lookupHopsSig:mean 	39.5
scalar Network.dyn_peer[910] 	lookupTimeSig:mean 	1.2
scalar Network.dyn_peer[910] 	lookupStabilitySig:mean 	0.69122092612088
scalar Network.dyn_peer[910] 	lookupHopsSig:mean 	11.25
scalar Network.dyn_peer[911] 	lookupTimeSig:mean 	1.275
scalar Network.dyn_peer[911] 	lookupStabilitySig:mean 	0.88602168485522
scalar Network.dyn_peer[911] 	lookupHopsSig:mean 	11.875
scalar Network.dyn_peer[912] 	lookupTimeSig:mean 	1.425
scalar Network.dyn_peer[912] 	lookupStabilitySig:mean 	0.74543295055628
scalar Network.dyn_peer[912] 	lookupHopsSig:mean 	13.5
scalar Network.dyn_peer[913] 	lookupTimeSig:mean 	2.525
scalar Network.dyn_peer[913] 	lookupStabilitySig:mean 	0.89133977610618
scalar Network.dyn_peer[913] 	lookupHopsSig:mean 	24.5
scalar Network.dyn_peer[914] 	lookupTimeSig:mean 	1.9857142857143
scalar Network.dyn_peer[914] 	lookupStabilitySig:mean 	0.95592758272375
scalar Network.dyn_peer[914] 	lookupHopsSig:mean 	19
scalar Network.dyn_peer[915] 	lookupTimeSig:mean 	1.7307692307692
scalar Network.dyn_peer[915] 	lookupStabilitySig:mean 	0.94065233774913
scalar Network.dyn_peer[915] 	lookupHopsSig:mean 	16.384615384615
scalar Network.dyn_peer[916] 	lookupTimeSig:mean 	2.4555555555556
scalar Network.dyn_peer[916] 	lookupStabilitySig:mean 	0.96524391323328
scalar Network.dyn_peer[916] 	lookupHopsSig:mean 	23.666666666667
scalar Network.dyn_peer[917] 	lookupTimeSig:mean 	1.1
scalar Network.dyn_peer[917] 	lookupStabilitySig:mean 	0.75536015164107
scalar Network.dyn_peer[917] 	lookupHopsSig:mean 	10.2
scalar Network.dyn_peer[918] 	lookupTimeSig:mean 	1.7133333333333
scalar Network.dyn_peer[918] 	lookupStabilitySig:mean 	0.97051301362614
scalar Network.dyn_peer[918] 	lookupHopsSig:mean 	16.2
scalar Network.dyn_peer[919] 	lookupTimeSig:mean 	2.0555555555556
scalar Network.dyn_peer[919] 	lookupStabilitySig:mean 	0.93176858696259
scalar Network.dyn_peer[919] 	lookupHopsSig:mean 	19.666666666667
scalar Network.dyn_peer[920] 	lookupTimeSig:mean 	2.5125
scalar Network.dyn_peer[920] 	lookupStabilitySig:mean 	0.96330284464057
scalar Network.dyn_peer[920] 	lookupHopsSig:mean 	24.25
scalar Network.dyn_peer[921] 	lookupTimeSig:mean 	1.8571428571429
scalar Network.dyn_peer[921] 	lookupStabilitySig:mean 	0.86344418841015
scalar Network.dyn_peer[921] 	lookupHopsSig:mean 	17.714285714286
scalar Network.dyn_peer[922] 	lookupTimeSig:mean 	1.4545454545455
scalar Network.dyn_peer[922] 	lookupStabilitySig:mean 	0.90934024018828
scalar Network.dyn_peer[922] 	lookupHopsSig:mean 	13.636363636364
scalar Network.dyn_peer[923] 	lookupTimeSig:mean 	1.9666666666667
scalar Network.dyn_peer[923] 	lookupStabilitySig:mean 	0.80914977565408
scalar Network.dyn_peer[923] 	lookupHopsSig:mean 	19
scalar Network.dyn_peer[924] 	lookupTimeSig:mean 	1.7
scalar Network.dyn_peer[924] 	lookupStabilitySig:mean 	0.75499196598927
scalar Network.dyn_peer[924] 	lookupHopsSig:mean 	16.333333333333
scalar Network.dyn_peer[925] 	lookupTimeSig:mean 	1.7333333333333
scalar Network.dyn_peer[925] 	lookupStabilitySig:mean 	0.9490662597689
scalar Network.dyn_peer[925] 	lookupHopsSig:mean 	16.444444444444
scalar Network.dyn_peer[926] 	lookupTimeSig:mean 	2.15
scalar Network.dyn_peer[926] 	lookupStabilitySig:mean 	0.95701279147761
scalar Network.dyn_peer[926] 	lookupHopsSig:mean 	20.625
scalar Network.dyn_peer[927] 	lookupTimeSig:mean 	1.875
scalar Network.dyn_peer[927] 	lookupStabilitySig:mean 	0.85350755508989
scalar Network.dyn_peer[927] 	lookupHopsSig:mean 	18
scalar Network.dyn_peer[928] 	lookupTimeSig:mean 	1.3
scalar Network.dyn_peer[928] 	lookupStabilitySig:mean 	0.73206953518093
scalar Network.dyn_peer[928] 	lookupHopsSig:mean 	12.25
scalar Network.dyn_peer[929] 	lookupTimeSig:mean 	5.35
scalar Network.dyn_peer[929] 	lookupStabilitySig:mean 	0.88297098875046
scalar Network.dyn_peer[929] 	lookupHopsSig:mean 	53
scalar Network.dyn_peer[930] 	lookupTimeSig:mean 	1.8
scalar Network.dyn_peer[930] 	lookupStabilitySig:mean 	0.89632276392409
scalar Network.dyn_peer[930] 	lookupHopsSig:mean 	17.142857142857
scalar Network.dyn_peer[931] 	lookupTimeSig:mean 	1.6666666666667
scalar Network.dyn_peer[931] 	lookupStabilitySig:mean 	0.89864206748704
scalar Network.dyn_peer[931] 	lookupHopsSig:mean 	15.833333333333
scalar Network.dyn_peer[932] 	lookupTimeSig:mean 	2.25
scalar Network.dyn_peer[932] 	lookupStabilitySig:mean 	0.89407128949339
scalar Network.dyn_peer[932] 	lookupHopsSig:mean 	21.666666666667
scalar Network.dyn_peer[933] 	lookupTimeSig:mean 	1.2375
scalar Network.dyn_peer[933] 	lookupStabilitySig:mean 	0.91997877944959
scalar Network.dyn_peer[933] 	lookupHopsSig:mean 	11.5
scalar Network.dyn_peer[934] 	lookupTimeSig:mean 	1.8222222222222
scalar Network.dyn_peer[934] 	lookupStabilitySig:mean 	0.9524389753739
scalar Network.dyn_peer[934] 	lookupHopsSig:mean 	17.333333333333
scalar Network.dyn_peer[935] 	lookupTimeSig:mean 	1.725
scalar Network.dyn_peer[935] 	lookupStabilitySig:mean 	0.86685985745862
scalar Network.dyn_peer[935] 	lookupHopsSig:mean 	16.5
scalar Network.dyn_peer[936] 	lookupTimeSig:mean 	2.1875
scalar Network.dyn_peer[936] 	lookupStabilitySig:mean 	0.96254726080224
scalar Network.dyn_peer[936] 	lookupHopsSig:mean 	21
scalar Network.dyn_peer[937] 	lookupTimeSig:mean 	2.175
scalar Network.dyn_peer[937] 	lookupStabilitySig:mean 	0.80567813105881
scalar Network.dyn_peer[937] 	lookupHopsSig:mean 	21
scalar Network.dyn_peer[938] 	lookupTimeSig:mean 	3.7
scalar Network.dyn_peer[938] 	lookupStabilitySig:mean 	0.61397705972195
scalar Network.dyn_peer[938] 	lookupHopsSig:mean 	36.5
scalar Network.dyn_peer[939] 	lookupTimeSig:mean 	3.5
scalar Network.dyn_peer[939] 	lookupStabilitySig:mean 	0.70042559752862
scalar Network.dyn_peer[939] 	lookupHopsSig:mean 	34.333333333333
scalar Network.dyn_peer[940] 	lookupTimeSig:mean 	1.5583333333333
scalar Network.dyn_peer[940] 	lookupStabilitySig:mean 	0.94697166040229
scalar Network.dyn_peer[940] 	lookupHopsSig:mean 	14.666666666667
scalar Network.dyn_peer[941] 	lookupTimeSig:mean 	1.4444444444444
scalar Network.dyn_peer[941] 	lookupStabilitySig:mean 	0.8955856198445
scalar Network.dyn_peer[941] 	lookupHopsSig:mean 	13.555555555556
scalar Network.dyn_peer[942] 	lookupTimeSig:mean 	1.2727272727273
scalar Network.dyn_peer[942] 	lookupStabilitySig:mean 	0.88080055266619
scalar Network.dyn_peer[942] 	lookupHopsSig:mean 	11.818181818182
scalar Network.dyn_peer[943] 	lookupTimeSig:mean 	2.9428571428571
scalar Network.dyn_peer[943] 	lookupStabilitySig:mean 	0.96029673303877
scalar Network.dyn_peer[943] 	lookupHopsSig:mean 	28.571428571429
scalar Network.dyn_peer[944] 	lookupTimeSig:mean 	2.5
scalar Network.dyn_peer[944] 	lookupStabilitySig:mean 	0.85834091156721
scalar Network.dyn_peer[944] 	lookupHopsSig:mean 	24.333333333333
scalar Network.dyn_peer[945] 	lookupTimeSig:mean 	2.0090909090909
scalar Network.dyn_peer[945] 	lookupStabilitySig:mean 	0.90495389530605
scalar Network.dyn_peer[945] 	lookupHopsSig:mean 	19.181818181818
scalar Network.dyn_peer[946] 	lookupTimeSig:mean 	0.96666666666667
scalar Network.dyn_peer[946] 	lookupStabilitySig:mean 	0.77857922141751
scalar Network.dyn_peer[946] 	lookupHopsSig:mean 	8.8333333333333
scalar Network.dyn_peer[947] 	lookupTimeSig:mean 	2.2090909090909
scalar Network.dyn_peer[947] 	lookupStabilitySig:mean 	0.9548926811496
scalar Network.dyn_peer[947] 	lookupHopsSig:mean 	21.181818181818
scalar Network.dyn_peer[948] 	lookupTimeSig:mean 	1.68
scalar Network.dyn_peer[948] 	lookupStabilitySig:mean 	0.8766572393477
scalar Network.dyn_peer[948] 	lookupHopsSig:mean 	16
scalar Network.dyn_peer[949] 	lookupTimeSig:mean 	3
scalar Network.dyn_peer[949] 	lookupStabilitySig:mean 	0.66182047873735
scalar Network.dyn_peer[949] 	lookupHopsSig:mean 	29.5
scalar Network.dyn_peer[950] 	lookupTimeSig:mean 	1.75
scalar Network.dyn_peer[950] 	lookupStabilitySig:mean 	0.77163225971162
scalar Network.dyn_peer[950] 	lookupHopsSig:mean 	16.75
scalar Network.dyn_peer[951] 	lookupTimeSig:mean 	4.15
scalar Network.dyn_peer[951] 	lookupStabilitySig:mean 	0.69806272536516
scalar Network.dyn_peer[951] 	lookupHopsSig:mean 	41
scalar Network.dyn_peer[952] 	lookupTimeSig:mean 	1.2363636363636
scalar Network.dyn_peer[952] 	lookupStabilitySig:mean 	0.92912027641962
scalar Network.dyn_peer[952] 	lookupHopsSig:mean 	11.454545454545
scalar Network.dyn_peer[953] 	lookupTimeSig:mean 	1.60625
scalar Network.dyn_peer[953] 	lookupStabilitySig:mean 	0.91651700565126
scalar Network.dyn_peer[953] 	lookupHopsSig:mean 	15.125
scalar Network.dyn_peer[954] 	lookupTimeSig:mean 	2.45
scalar Network.dyn_peer[954] 	lookupStabilitySig:mean 	0.95592667406891
scalar Network.dyn_peer[954] 	lookupHopsSig:mean 	23.625
scalar Network.dyn_peer[955] 	lookupTimeSig:mean 	2.2666666666667
scalar Network.dyn_peer[955] 	lookupStabilitySig:mean 	0.69939276079337
scalar Network.dyn_peer[955] 	lookupHopsSig:mean 	22
scalar Network.dyn_peer[956] 	lookupTimeSig:mean 	2.4666666666667
scalar Network.dyn_peer[956] 	lookupStabilitySig:mean 	0.77465425680081
scalar Network.dyn_peer[956] 	lookupHopsSig:mean 	24
scalar Network.dyn_peer[957] 	lookupTimeSig:mean 	2.4
scalar Network.dyn_peer[957] 	lookupStabilitySig:mean 	0.95718773854896
scalar Network.dyn_peer[957] 	lookupHopsSig:mean 	23.1
scalar Network.dyn_peer[958] 	lookupTimeSig:mean 	2.225
scalar Network.dyn_peer[958] 	lookupStabilitySig:mean 	0.78397964022588
scalar Network.dyn_peer[958] 	lookupHopsSig:mean 	21.5
scalar Network.dyn_peer[959] 	lookupTimeSig:mean 	1.6
scalar Network.dyn_peer[959] 	lookupStabilitySig:mean 	0.77529474844535
scalar Network.dyn_peer[959] 	lookupHopsSig:mean 	15.333333333333
scalar Network.dyn_peer[960] 	lookupTimeSig:mean 	1.7666666666667
scalar Network.dyn_peer[960] 	lookupStabilitySig:mean 	0.70043603330851
scalar Network.dyn_peer[960] 	lookupHopsSig:mean 	17
scalar Network.dyn_peer[961] 	lookupTimeSig:mean 	1.8714285714286
scalar Network.dyn_peer[961] 	lookupStabilitySig:mean 	0.90762669586443
scalar Network.dyn_peer[961] 	lookupHopsSig:mean 	17.857142857143
scalar Network.dyn_peer[962] 	lookupTimeSig:mean 	1.7857142857143
scalar Network.dyn_peer[962] 	lookupStabilitySig:mean 	0.95965523375863
scalar Network.dyn_peer[962] 	lookupHopsSig:mean 	17
scalar Network.dyn_peer[963] 	lookupTimeSig:mean 	2.25
scalar Network.dyn_peer[963] 	lookupStabilitySig:mean 	0.54137931764126
scalar Network.dyn_peer[963] 	lookupHopsSig:mean 	22
scalar Network.dyn_peer[964] 	lookupTimeSig:mean 	2.86
scalar Network.dyn_peer[964] 	lookupStabilitySig:mean 	0.92256585396826
scalar Network.dyn_peer[964] 	lookupHopsSig:mean 	27.8
scalar Network.dyn_peer[965] 	lookupTimeSig:mean 	3.4
scalar Network.dyn_peer[965] 	lookupStabilitySig:mean 	0.7006960362196
scalar Network.dyn_peer[965] 	lookupHopsSig:mean 	33.333333333333
scalar Network.dyn_peer[966] 	lookupTimeSig:mean 	1.475
scalar Network.dyn_peer[966] 	lookupStabilitySig:mean 	0.80403879471123
scalar Network.dyn_peer[966] 	lookupHopsSig:mean 	14
scalar Network.dyn_peer[967] 	lookupTimeSig:mean 	2.18
scalar Network.dyn_peer[967] 	lookupStabilitySig:mean 	0.80330930128694
scalar Network.dyn_peer[967] 	lookupHopsSig:mean 	21
scalar Network.dyn_peer[968] 	lookupTimeSig:mean 	2.4
scalar Network.dyn_peer[968] 	lookupStabilitySig:mean 	0.83163258184989
scalar Network.dyn_peer[968] 	lookupHopsSig:mean 	23.333333333333
scalar Network.dyn_peer[969] 	lookupTimeSig:mean 	3.3333333333333
scalar Network.dyn_peer[969] 	lookupStabilitySig:mean 	0.82113343353073
scalar Network.dyn_peer[969] 	lookupHopsSig:mean 	32.666666666667
scalar Network.dyn_peer[970] 	lookupTimeSig:mean 	1.975
scalar Network.dyn_peer[970] 	lookupStabilitySig:mean 	0.72451405227184
scalar Network.dyn_peer[970] 	lookupHopsSig:mean 	19
scalar Network.dyn_peer[971] 	lookupTimeSig:mean 	2.725
scalar Network.dyn_peer[971] 	lookupStabilitySig:mean 	0.8139794007875
scalar Network.dyn_peer[971] 	lookupHopsSig:mean 	26.5
scalar Network.dyn_peer[972] 	lookupTimeSig:mean 	2.475
scalar Network.dyn_peer[972] 	lookupStabilitySig:mean 	0.86741225421429
scalar Network.dyn_peer[972] 	lookupHopsSig:mean 	24
scalar Network.dyn_peer[973] 	lookupTimeSig:mean 	1.0857142857143
scalar Network.dyn_peer[973] 	lookupStabilitySig:mean 	0.8801391288372
scalar Network.dyn_peer[973] 	lookupHopsSig:mean 	10
scalar Network.dyn_peer[974] 	lookupTimeSig:mean 	1.54
scalar Network.dyn_peer[974] 	lookupStabilitySig:mean 	0.91020439515511
scalar Network.dyn_peer[974] 	lookupHopsSig:mean 	14.466666666667
scalar Network.dyn_peer[975] 	lookupTimeSig:mean 	1.45
scalar Network.dyn_peer[975] 	lookupStabilitySig:mean 	0.8547455069609
scalar Network.dyn_peer[975] 	lookupHopsSig:mean 	13.6
scalar Network.dyn_peer[976] 	lookupTimeSig:mean 	2.1833333333333
scalar Network.dyn_peer[976] 	lookupStabilitySig:mean 	0.88370594816903
scalar Network.dyn_peer[976] 	lookupHopsSig:mean 	21
scalar Network.dyn_peer[977] 	lookupTimeSig:mean 	2.725
scalar Network.dyn_peer[977] 	lookupStabilitySig:mean 	0.82818132685497
scalar Network.dyn_peer[977] 	lookupHopsSig:mean 	26.5
scalar Network.dyn_peer[978] 	lookupTimeSig:mean 	3.2
scalar Network.dyn_peer[978] 	lookupStabilitySig:mean 	0.83150021769106
scalar Network.dyn_peer[978] 	lookupHopsSig:mean 	31.2
scalar Network.dyn_peer[979] 	lookupTimeSig:mean 	3.2666666666667
scalar Network.dyn_peer[979] 	lookupStabilitySig:mean 	0.85728791976968
scalar Network.dyn_peer[979] 	lookupHopsSig:mean 	32
scalar Network.dyn_peer[980] 	lookupTimeSig:mean 	1.82
scalar Network.dyn_peer[980] 	lookupStabilitySig:mean 	0.89785041101277
scalar Network.dyn_peer[980] 	lookupHopsSig:mean 	17.4
scalar Network.dyn_peer[981] 	lookupTimeSig:mean 	2.88
scalar Network.dyn_peer[981] 	lookupStabilitySig:mean 	0.92985747605562
scalar Network.dyn_peer[981] 	lookupHopsSig:mean 	28
scalar Network.dyn_peer[982] 	lookupTimeSig:mean 	1.625
scalar Network.dyn_peer[982] 	lookupStabilitySig:mean 	0.95379337342456
scalar Network.dyn_peer[982] 	lookupHopsSig:mean 	15.3125
scalar Network.dyn_peer[983] 	lookupTimeSig:mean 	1.7428571428571
scalar Network.dyn_peer[983] 	lookupStabilitySig:mean 	0.90041827024626
scalar Network.dyn_peer[983] 	lookupHopsSig:mean 	16.571428571429
scalar Network.dyn_peer[984] 	lookupTimeSig:mean 	3.76
scalar Network.dyn_peer[984] 	lookupStabilitySig:mean 	0.94911513365805
scalar Network.dyn_peer[984] 	lookupHopsSig:mean 	36.8
scalar Network.dyn_peer[985] 	lookupTimeSig:mean 	2.0666666666667
scalar Network.dyn_peer[985] 	lookupStabilitySig:mean 	0.92810467692713
scalar Network.dyn_peer[985] 	lookupHopsSig:mean 	19.833333333333
scalar Network.dyn_peer[986] 	lookupTimeSig:mean 	3.4333333333333
scalar Network.dyn_peer[986] 	lookupStabilitySig:mean 	0.86904286593199
scalar Network.dyn_peer[986] 	lookupHopsSig:mean 	33.666666666667
scalar Network.dyn_peer[987] 	lookupTimeSig:mean 	2.45
scalar Network.dyn_peer[987] 	lookupStabilitySig:mean 	0.9386442929972
scalar Network.dyn_peer[987] 	lookupHopsSig:mean 	23.625
scalar Network.dyn_peer[988] 	lookupTimeSig:mean 	2.12
scalar Network.dyn_peer[988] 	lookupStabilitySig:mean 	0.88940968215466
scalar Network.dyn_peer[988] 	lookupHopsSig:mean 	20.4
scalar Network.dyn_peer[989] 	lookupTimeSig:mean 	1.4875
scalar Network.dyn_peer[989] 	lookupStabilitySig:mean 	0.95280898659257
scalar Network.dyn_peer[989] 	lookupHopsSig:mean 	14
scalar Network.dyn_peer[990] 	lookupTimeSig:mean 	1.7333333333333
scalar Network.dyn_peer[990] 	lookupStabilitySig:mean 	0.84403300409516
scalar Network.dyn_peer[990] 	lookupHopsSig:mean 	16.666666666667
scalar Network.dyn_peer[991] 	lookupTimeSig:mean 	2.575
scalar Network.dyn_peer[991] 	lookupStabilitySig:mean 	0.73682048171759
scalar Network.dyn_peer[991] 	lookupHopsSig:mean 	25
scalar Network.dyn_peer[992] 	lookupTimeSig:mean 	3.35
scalar Network.dyn_peer[992] 	lookupStabilitySig:mean 	0.59711190313101
scalar Network.dyn_peer[992] 	lookupHopsSig:mean 	33
scalar Network.dyn_peer[993] 	lookupTimeSig:mean 	1.7875
scalar Network.dyn_peer[993] 	lookupStabilitySig:mean 	0.86928870703559
scalar Network.dyn_peer[993] 	lookupHopsSig:mean 	17
scalar Network.dyn_peer[994] 	lookupTimeSig:mean 	1.8666666666667
scalar Network.dyn_peer[994] 	lookupStabilitySig:mean 	0.74625849227111
scalar Network.dyn_peer[994] 	lookupHopsSig:mean 	18
scalar Network.dyn_peer[995] 	lookupTimeSig:mean 	5
scalar Network.dyn_peer[995] 	lookupStabilitySig:mean 	0.83923208341002
scalar Network.dyn_peer[995] 	lookupHopsSig:mean 	49.5
scalar Network.dyn_peer[996] 	lookupTimeSig:mean 	1.6
scalar Network.dyn_peer[996] 	lookupStabilitySig:mean 	0.93195358112168
scalar Network.dyn_peer[996] 	lookupHopsSig:mean 	15.076923076923
scalar Network.dyn_peer[997] 	lookupTimeSig:mean 	1.8166666666667
scalar Network.dyn_peer[997] 	lookupStabilitySig:mean 	0.87365992181003
scalar Network.dyn_peer[997] 	lookupHopsSig:mean 	17.333333333333
scalar Network.dyn_peer[998] 	lookupTimeSig:mean 	1.85
scalar Network.dyn_peer[998] 	lookupStabilitySig:mean 	0.9008984931279
scalar Network.dyn_peer[998] 	lookupHopsSig:mean 	17.625
scalar Network.dyn_peer[999] 	lookupTimeSig:mean 	1.4875
scalar Network.dyn_peer[999] 	lookupStabilitySig:mean 	0.91193584911525
scalar Network.dyn_peer[999] 	lookupHopsSig:mean 	14
scalar Network.churner 	inGoingSizeSig:mean 	498.91708291708
