version 2
run Stability2-300-20130526-00:54:18-26640
attr configname Stability2
attr datetime 20130526-00:54:18
attr experiment Stability2
attr inifile omnetpp.ini
attr iterationvars $0=1000
attr iterationvars2 "$0=1000, $repetition=0"
attr measurement $0=1000
attr network Network
attr processid 26640
attr repetition 0
attr replication #0
attr resultdir results
attr runnumber 300
attr seedset 300

scalar Network.dyn_peer[0] 	lookupTimeSig:mean 	1.825
scalar Network.dyn_peer[0] 	lookupStabilitySig:mean 	0.69482678605709
scalar Network.dyn_peer[0] 	lookupHopsSig:mean 	17.375
scalar Network.dyn_peer[1] 	lookupTimeSig:mean 	1.4142857142857
scalar Network.dyn_peer[1] 	lookupStabilitySig:mean 	0.70525840071163
scalar Network.dyn_peer[1] 	lookupHopsSig:mean 	13.285714285714
scalar Network.dyn_peer[2] 	lookupTimeSig:mean 	1.8857142857143
scalar Network.dyn_peer[2] 	lookupStabilitySig:mean 	0.72983154840767
scalar Network.dyn_peer[2] 	lookupHopsSig:mean 	18
scalar Network.dyn_peer[3] 	lookupTimeSig:mean 	2.625
scalar Network.dyn_peer[3] 	lookupStabilitySig:mean 	0.57145174406469
scalar Network.dyn_peer[3] 	lookupHopsSig:mean 	25.5
scalar Network.dyn_peer[4] 	lookupTimeSig:mean 	1.775
scalar Network.dyn_peer[4] 	lookupStabilitySig:mean 	0.39547716360539
scalar Network.dyn_peer[4] 	lookupHopsSig:mean 	17
scalar Network.dyn_peer[5] 	lookupTimeSig:mean 	1.275
scalar Network.dyn_peer[5] 	lookupStabilitySig:mean 	0.41944964509457
scalar Network.dyn_peer[5] 	lookupHopsSig:mean 	12
scalar Network.dyn_peer[6] 	lookupTimeSig:mean 	2.22
scalar Network.dyn_peer[6] 	lookupStabilitySig:mean 	0.5054473772645
scalar Network.dyn_peer[6] 	lookupHopsSig:mean 	21.4
scalar Network.dyn_peer[7] 	lookupTimeSig:mean 	1.18
scalar Network.dyn_peer[7] 	lookupStabilitySig:mean 	0.62327191382647
scalar Network.dyn_peer[7] 	lookupHopsSig:mean 	11
scalar Network.dyn_peer[8] 	lookupTimeSig:mean 	1.3571428571429
scalar Network.dyn_peer[8] 	lookupStabilitySig:mean 	0.61939386331609
scalar Network.dyn_peer[8] 	lookupHopsSig:mean 	12.714285714286
scalar Network.dyn_peer[9] 	lookupTimeSig:mean 	1.7
scalar Network.dyn_peer[9] 	lookupStabilitySig:mean 	0.073717921972275
scalar Network.dyn_peer[9] 	lookupHopsSig:mean 	16.5
scalar Network.dyn_peer[10] 	lookupTimeSig:mean 	2.8285714285714
scalar Network.dyn_peer[10] 	lookupStabilitySig:mean 	0.66959823668003
scalar Network.dyn_peer[10] 	lookupHopsSig:mean 	27.428571428571
scalar Network.dyn_peer[11] 	lookupTimeSig:mean 	2.04
scalar Network.dyn_peer[11] 	lookupStabilitySig:mean 	0.7976207697764
scalar Network.dyn_peer[11] 	lookupHopsSig:mean 	19.6
scalar Network.dyn_peer[12] 	lookupTimeSig:mean 	2.1833333333333
scalar Network.dyn_peer[12] 	lookupStabilitySig:mean 	0.94695858106328
scalar Network.dyn_peer[12] 	lookupHopsSig:mean 	21
scalar Network.dyn_peer[13] 	lookupTimeSig:mean 	1.8142857142857
scalar Network.dyn_peer[13] 	lookupStabilitySig:mean 	0.75111192198736
scalar Network.dyn_peer[13] 	lookupHopsSig:mean 	17.285714285714
scalar Network.dyn_peer[14] 	lookupTimeSig:mean 	2.26
scalar Network.dyn_peer[14] 	lookupStabilitySig:mean 	0.74230289682746
scalar Network.dyn_peer[14] 	lookupHopsSig:mean 	21.8
scalar Network.dyn_peer[15] 	lookupTimeSig:mean 	1.675
scalar Network.dyn_peer[15] 	lookupStabilitySig:mean 	0.75496588437818
scalar Network.dyn_peer[15] 	lookupHopsSig:mean 	15.875
scalar Network.dyn_peer[16] 	lookupTimeSig:mean 	2.1875
scalar Network.dyn_peer[16] 	lookupStabilitySig:mean 	0.74658673431259
scalar Network.dyn_peer[16] 	lookupHopsSig:mean 	21
scalar Network.dyn_peer[17] 	lookupTimeSig:mean 	1.3615384615385
scalar Network.dyn_peer[17] 	lookupStabilitySig:mean 	0.82672058482869
scalar Network.dyn_peer[17] 	lookupHopsSig:mean 	12.692307692308
scalar Network.dyn_peer[18] 	lookupTimeSig:mean 	1.825
scalar Network.dyn_peer[18] 	lookupStabilitySig:mean 	0.4593467451632
scalar Network.dyn_peer[18] 	lookupHopsSig:mean 	17.5
scalar Network.dyn_peer[19] 	lookupTimeSig:mean 	1.025
scalar Network.dyn_peer[19] 	lookupStabilitySig:mean 	0.48499854281545
scalar Network.dyn_peer[19] 	lookupHopsSig:mean 	9.5
scalar Network.dyn_peer[20] 	lookupTimeSig:mean 	5.8
scalar Network.dyn_peer[20] 	lookupStabilitySig:mean 	0.21783217787743
scalar Network.dyn_peer[20] 	lookupHopsSig:mean 	57.5
scalar Network.dyn_peer[21] 	lookupTimeSig:mean 	1.6
scalar Network.dyn_peer[21] 	lookupStabilitySig:mean 	0.67028947882354
scalar Network.dyn_peer[21] 	lookupHopsSig:mean 	15.2
scalar Network.dyn_peer[22] 	lookupTimeSig:mean 	2.025
scalar Network.dyn_peer[22] 	lookupStabilitySig:mean 	0.56832894310355
scalar Network.dyn_peer[22] 	lookupHopsSig:mean 	19.5
scalar Network.dyn_peer[23] 	lookupTimeSig:mean 	1.6333333333333
scalar Network.dyn_peer[23] 	lookupStabilitySig:mean 	0.55456070788205
scalar Network.dyn_peer[23] 	lookupHopsSig:mean 	15.5
scalar Network.dyn_peer[24] 	lookupTimeSig:mean 	0.96
scalar Network.dyn_peer[24] 	lookupStabilitySig:mean 	0.41263763159513
scalar Network.dyn_peer[24] 	lookupHopsSig:mean 	8.8
scalar Network.dyn_peer[25] 	lookupTimeSig:mean 	2.2
scalar Network.dyn_peer[25] 	lookupStabilitySig:mean 	0.35362962633371
scalar Network.dyn_peer[25] 	lookupHopsSig:mean 	21.25
scalar Network.dyn_peer[26] 	lookupTimeSig:mean 	2.825
scalar Network.dyn_peer[26] 	lookupStabilitySig:mean 	0.86818121024407
scalar Network.dyn_peer[26] 	lookupHopsSig:mean 	27.5
scalar Network.dyn_peer[27] 	lookupTimeSig:mean 	2.35
scalar Network.dyn_peer[27] 	lookupStabilitySig:mean 	0.56908334232867
scalar Network.dyn_peer[27] 	lookupHopsSig:mean 	22.75
scalar Network.dyn_peer[28] 	lookupTimeSig:mean 	1.6428571428571
scalar Network.dyn_peer[28] 	lookupStabilitySig:mean 	0.64794060162136
scalar Network.dyn_peer[28] 	lookupHopsSig:mean 	15.571428571429
scalar Network.dyn_peer[29] 	lookupTimeSig:mean 	1.5538461538462
scalar Network.dyn_peer[29] 	lookupStabilitySig:mean 	0.79454938916919
scalar Network.dyn_peer[29] 	lookupHopsSig:mean 	14.615384615385
scalar Network.dyn_peer[30] 	lookupTimeSig:mean 	3.9
scalar Network.dyn_peer[30] 	lookupStabilitySig:mean 	0.37755101919174
scalar Network.dyn_peer[30] 	lookupHopsSig:mean 	38.5
scalar Network.dyn_peer[31] 	lookupTimeSig:mean 	1.72
scalar Network.dyn_peer[31] 	lookupStabilitySig:mean 	0.5684418618679
scalar Network.dyn_peer[31] 	lookupHopsSig:mean 	16.4
scalar Network.dyn_peer[32] 	lookupTimeSig:mean 	1.85
scalar Network.dyn_peer[32] 	lookupStabilitySig:mean 	0.67402970061327
scalar Network.dyn_peer[32] 	lookupHopsSig:mean 	17.666666666667
scalar Network.dyn_peer[33] 	lookupTimeSig:mean 	2.675
scalar Network.dyn_peer[33] 	lookupStabilitySig:mean 	0.52844988496508
scalar Network.dyn_peer[33] 	lookupHopsSig:mean 	26
scalar Network.dyn_peer[34] 	lookupTimeSig:mean 	1.5625
scalar Network.dyn_peer[34] 	lookupStabilitySig:mean 	0.85783941228874
scalar Network.dyn_peer[34] 	lookupHopsSig:mean 	14.75
scalar Network.dyn_peer[35] 	lookupTimeSig:mean 	1.84
scalar Network.dyn_peer[35] 	lookupStabilitySig:mean 	0.7605399530381
scalar Network.dyn_peer[35] 	lookupHopsSig:mean 	17.5
scalar Network.dyn_peer[36] 	lookupTimeSig:mean 	1.4
scalar Network.dyn_peer[36] 	lookupStabilitySig:mean 	0.62301350012422
scalar Network.dyn_peer[36] 	lookupHopsSig:mean 	13.166666666667
scalar Network.dyn_peer[37] 	lookupTimeSig:mean 	1.2285714285714
scalar Network.dyn_peer[37] 	lookupStabilitySig:mean 	0.63732234840947
scalar Network.dyn_peer[37] 	lookupHopsSig:mean 	11.428571428571
scalar Network.dyn_peer[38] 	lookupTimeSig:mean 	1.2
scalar Network.dyn_peer[38] 	lookupStabilitySig:mean 	0.31489465261499
scalar Network.dyn_peer[38] 	lookupHopsSig:mean 	11.333333333333
scalar Network.dyn_peer[39] 	lookupTimeSig:mean 	2.825
scalar Network.dyn_peer[39] 	lookupStabilitySig:mean 	0.60037109255791
scalar Network.dyn_peer[39] 	lookupHopsSig:mean 	27.5
scalar Network.dyn_peer[40] 	lookupTimeSig:mean 	1.025
scalar Network.dyn_peer[40] 	lookupStabilitySig:mean 	0.64450549706817
scalar Network.dyn_peer[40] 	lookupHopsSig:mean 	9.5
scalar Network.dyn_peer[41] 	lookupTimeSig:mean 	1.6
scalar Network.dyn_peer[41] 	lookupStabilitySig:mean 	0.67783479730133
scalar Network.dyn_peer[41] 	lookupHopsSig:mean 	15.125
scalar Network.dyn_peer[42] 	lookupTimeSig:mean 	1.7111111111111
scalar Network.dyn_peer[42] 	lookupStabilitySig:mean 	0.68924737504373
scalar Network.dyn_peer[42] 	lookupHopsSig:mean 	16.222222222222
scalar Network.dyn_peer[43] 	lookupTimeSig:mean 	1.5
scalar Network.dyn_peer[43] 	lookupStabilitySig:mean 	0.82231638580561
scalar Network.dyn_peer[43] 	lookupHopsSig:mean 	14.25
scalar Network.dyn_peer[44] 	lookupTimeSig:mean 	2.9666666666667
scalar Network.dyn_peer[44] 	lookupStabilitySig:mean 	0.58154259373744
scalar Network.dyn_peer[44] 	lookupHopsSig:mean 	29
scalar Network.dyn_peer[45] 	lookupTimeSig:mean 	1.4222222222222
scalar Network.dyn_peer[45] 	lookupStabilitySig:mean 	0.72664025462129
scalar Network.dyn_peer[45] 	lookupHopsSig:mean 	13.333333333333
scalar Network.dyn_peer[46] 	lookupTimeSig:mean 	0.88
scalar Network.dyn_peer[46] 	lookupStabilitySig:mean 	0.55183600634336
scalar Network.dyn_peer[46] 	lookupHopsSig:mean 	8
scalar Network.dyn_peer[47] 	lookupTimeSig:mean 	1.5
scalar Network.dyn_peer[47] 	lookupStabilitySig:mean 	0.87838433533907
scalar Network.dyn_peer[47] 	lookupHopsSig:mean 	14.1
scalar Network.dyn_peer[48] 	lookupTimeSig:mean 	2.475
scalar Network.dyn_peer[48] 	lookupStabilitySig:mean 	0.33407704718411
scalar Network.dyn_peer[48] 	lookupHopsSig:mean 	24
scalar Network.dyn_peer[49] 	lookupTimeSig:mean 	1.6777777777778
scalar Network.dyn_peer[49] 	lookupStabilitySig:mean 	0.69953828956932
scalar Network.dyn_peer[49] 	lookupHopsSig:mean 	15.888888888889
scalar Network.dyn_peer[50] 	lookupTimeSig:mean 	2.6714285714286
scalar Network.dyn_peer[50] 	lookupStabilitySig:mean 	0.94645419929709
scalar Network.dyn_peer[50] 	lookupHopsSig:mean 	25.857142857143
scalar Network.dyn_peer[51] 	lookupTimeSig:mean 	1.9333333333333
scalar Network.dyn_peer[51] 	lookupStabilitySig:mean 	0.61679292718569
scalar Network.dyn_peer[51] 	lookupHopsSig:mean 	18.666666666667
scalar Network.dyn_peer[52] 	lookupTimeSig:mean 	2.08
scalar Network.dyn_peer[52] 	lookupStabilitySig:mean 	0.82590195983648
scalar Network.dyn_peer[52] 	lookupHopsSig:mean 	20
scalar Network.dyn_peer[53] 	lookupTimeSig:mean 	1.3222222222222
scalar Network.dyn_peer[53] 	lookupStabilitySig:mean 	0.81248854486168
scalar Network.dyn_peer[53] 	lookupHopsSig:mean 	12.333333333333
scalar Network.dyn_peer[54] 	lookupTimeSig:mean 	1.8666666666667
scalar Network.dyn_peer[54] 	lookupStabilitySig:mean 	0.92046465525507
scalar Network.dyn_peer[54] 	lookupHopsSig:mean 	17.777777777778
scalar Network.dyn_peer[55] 	lookupTimeSig:mean 	2.85
scalar Network.dyn_peer[55] 	lookupStabilitySig:mean 	0.92299347867568
scalar Network.dyn_peer[55] 	lookupHopsSig:mean 	27.666666666667
scalar Network.dyn_peer[56] 	lookupTimeSig:mean 	1.9142857142857
scalar Network.dyn_peer[56] 	lookupStabilitySig:mean 	0.92521330195346
scalar Network.dyn_peer[56] 	lookupHopsSig:mean 	18.285714285714
scalar Network.dyn_peer[57] 	lookupTimeSig:mean 	2.15
scalar Network.dyn_peer[57] 	lookupStabilitySig:mean 	0.82199578080326
scalar Network.dyn_peer[57] 	lookupHopsSig:mean 	20.666666666667
scalar Network.dyn_peer[58] 	lookupTimeSig:mean 	1.925
scalar Network.dyn_peer[58] 	lookupStabilitySig:mean 	0.43607170134783
scalar Network.dyn_peer[58] 	lookupHopsSig:mean 	18.5
scalar Network.dyn_peer[59] 	lookupTimeSig:mean 	0.73333333333333
scalar Network.dyn_peer[59] 	lookupStabilitySig:mean 	0.19551818569501
scalar Network.dyn_peer[59] 	lookupHopsSig:mean 	6.6666666666667
scalar Network.dyn_peer[60] 	lookupTimeSig:mean 	1.65
scalar Network.dyn_peer[60] 	lookupStabilitySig:mean 	0.74458125047386
scalar Network.dyn_peer[60] 	lookupHopsSig:mean 	15.75
scalar Network.dyn_peer[61] 	lookupTimeSig:mean 	3.2
scalar Network.dyn_peer[61] 	lookupStabilitySig:mean 	0.64278350770473
scalar Network.dyn_peer[61] 	lookupHopsSig:mean 	31.5
scalar Network.dyn_peer[62] 	lookupTimeSig:mean 	1.5555555555556
scalar Network.dyn_peer[62] 	lookupStabilitySig:mean 	0.73342976470788
scalar Network.dyn_peer[62] 	lookupHopsSig:mean 	14.666666666667
scalar Network.dyn_peer[63] 	lookupTimeSig:mean 	1.1666666666667
scalar Network.dyn_peer[63] 	lookupStabilitySig:mean 	0.4199134260416
scalar Network.dyn_peer[63] 	lookupHopsSig:mean 	11
scalar Network.dyn_peer[64] 	lookupTimeSig:mean 	1.5166666666667
scalar Network.dyn_peer[64] 	lookupStabilitySig:mean 	0.54223833310728
scalar Network.dyn_peer[64] 	lookupHopsSig:mean 	14.333333333333
scalar Network.dyn_peer[65] 	lookupTimeSig:mean 	1.5142857142857
scalar Network.dyn_peer[65] 	lookupStabilitySig:mean 	0.70473283529282
scalar Network.dyn_peer[65] 	lookupHopsSig:mean 	14.285714285714
scalar Network.dyn_peer[66] 	lookupTimeSig:mean 	2.24
scalar Network.dyn_peer[66] 	lookupStabilitySig:mean 	0.64264481700957
scalar Network.dyn_peer[66] 	lookupHopsSig:mean 	21.6
scalar Network.dyn_peer[67] 	lookupTimeSig:mean 	2.5888888888889
scalar Network.dyn_peer[67] 	lookupStabilitySig:mean 	0.8932639409581
scalar Network.dyn_peer[67] 	lookupHopsSig:mean 	25
scalar Network.dyn_peer[68] 	lookupTimeSig:mean 	1.275
scalar Network.dyn_peer[68] 	lookupStabilitySig:mean 	0.711461806437
scalar Network.dyn_peer[68] 	lookupHopsSig:mean 	11.875
scalar Network.dyn_peer[69] 	lookupTimeSig:mean 	1.9714285714286
scalar Network.dyn_peer[69] 	lookupStabilitySig:mean 	0.76972340130513
scalar Network.dyn_peer[69] 	lookupHopsSig:mean 	18.857142857143
scalar Network.dyn_peer[70] 	lookupTimeSig:mean 	2
scalar Network.dyn_peer[70] 	lookupStabilitySig:mean 	0.6640237246507
scalar Network.dyn_peer[70] 	lookupHopsSig:mean 	19.142857142857
scalar Network.dyn_peer[71] 	lookupTimeSig:mean 	1.06
scalar Network.dyn_peer[71] 	lookupStabilitySig:mean 	0.78220451064408
scalar Network.dyn_peer[71] 	lookupHopsSig:mean 	9.8
scalar Network.dyn_peer[72] 	lookupTimeSig:mean 	2.98
scalar Network.dyn_peer[72] 	lookupStabilitySig:mean 	0.90394155196846
scalar Network.dyn_peer[72] 	lookupHopsSig:mean 	29
scalar Network.dyn_peer[73] 	lookupTimeSig:mean 	0.93333333333333
scalar Network.dyn_peer[73] 	lookupStabilitySig:mean 	0.77133660227992
scalar Network.dyn_peer[73] 	lookupHopsSig:mean 	8.4444444444444
scalar Network.dyn_peer[74] 	lookupTimeSig:mean 	1.4333333333333
scalar Network.dyn_peer[74] 	lookupStabilitySig:mean 	0.26666667560736
scalar Network.dyn_peer[74] 	lookupHopsSig:mean 	13.666666666667
scalar Network.dyn_peer[75] 	lookupTimeSig:mean 	1.89
scalar Network.dyn_peer[75] 	lookupStabilitySig:mean 	0.8770962972194
scalar Network.dyn_peer[75] 	lookupHopsSig:mean 	18
scalar Network.dyn_peer[76] 	lookupTimeSig:mean 	2.04
scalar Network.dyn_peer[76] 	lookupStabilitySig:mean 	0.55056380443275
scalar Network.dyn_peer[76] 	lookupHopsSig:mean 	19.6
scalar Network.dyn_peer[77] 	lookupTimeSig:mean 	3.3333333333333
scalar Network.dyn_peer[77] 	lookupStabilitySig:mean 	0.21151070296764
scalar Network.dyn_peer[77] 	lookupHopsSig:mean 	32.666666666667
scalar Network.dyn_peer[78] 	lookupTimeSig:mean 	1.7
scalar Network.dyn_peer[78] 	lookupStabilitySig:mean 	0.65694603075584
scalar Network.dyn_peer[78] 	lookupHopsSig:mean 	16.333333333333
scalar Network.dyn_peer[79] 	lookupTimeSig:mean 	2.2555555555556
scalar Network.dyn_peer[79] 	lookupStabilitySig:mean 	0.95863882343595
scalar Network.dyn_peer[79] 	lookupHopsSig:mean 	21.666666666667
scalar Network.dyn_peer[80] 	lookupTimeSig:mean 	1.4142857142857
scalar Network.dyn_peer[80] 	lookupStabilitySig:mean 	0.91665893101266
scalar Network.dyn_peer[80] 	lookupHopsSig:mean 	13.285714285714
scalar Network.dyn_peer[81] 	lookupTimeSig:mean 	1.6
scalar Network.dyn_peer[81] 	lookupStabilitySig:mean 	0.22147033611933
scalar Network.dyn_peer[81] 	lookupHopsSig:mean 	15.333333333333
scalar Network.dyn_peer[82] 	lookupTimeSig:mean 	1.1833333333333
scalar Network.dyn_peer[82] 	lookupStabilitySig:mean 	0.81269028224051
scalar Network.dyn_peer[82] 	lookupHopsSig:mean 	11
scalar Network.dyn_peer[83] 	lookupTimeSig:mean 	1.475
scalar Network.dyn_peer[83] 	lookupStabilitySig:mean 	0.61675210297108
scalar Network.dyn_peer[83] 	lookupHopsSig:mean 	14
scalar Network.dyn_peer[84] 	lookupTimeSig:mean 	1.05
scalar Network.dyn_peer[84] 	lookupStabilitySig:mean 	0.46813958510756
scalar Network.dyn_peer[84] 	lookupHopsSig:mean 	9.75
scalar Network.dyn_peer[85] 	lookupTimeSig:mean 	1.7333333333333
scalar Network.dyn_peer[85] 	lookupStabilitySig:mean 	0.24584221839905
scalar Network.dyn_peer[85] 	lookupHopsSig:mean 	16.666666666667
scalar Network.dyn_peer[86] 	lookupTimeSig:mean 	1.7142857142857
scalar Network.dyn_peer[86] 	lookupStabilitySig:mean 	0.90496361202427
scalar Network.dyn_peer[86] 	lookupHopsSig:mean 	16.285714285714
scalar Network.dyn_peer[87] 	lookupTimeSig:mean 	1.55
scalar Network.dyn_peer[87] 	lookupStabilitySig:mean 	0.65702679217793
scalar Network.dyn_peer[87] 	lookupHopsSig:mean 	14.625
scalar Network.dyn_peer[88] 	lookupTimeSig:mean 	1.9222222222222
scalar Network.dyn_peer[88] 	lookupStabilitySig:mean 	0.91060295794159
scalar Network.dyn_peer[88] 	lookupHopsSig:mean 	18.333333333333
scalar Network.dyn_peer[89] 	lookupTimeSig:mean 	2.0166666666667
scalar Network.dyn_peer[89] 	lookupStabilitySig:mean 	0.79254064414029
scalar Network.dyn_peer[89] 	lookupHopsSig:mean 	19.333333333333
scalar Network.dyn_peer[90] 	lookupTimeSig:mean 	1.3333333333333
scalar Network.dyn_peer[90] 	lookupStabilitySig:mean 	0.70177227682951
scalar Network.dyn_peer[90] 	lookupHopsSig:mean 	12.444444444444
scalar Network.dyn_peer[91] 	lookupTimeSig:mean 	1.8666666666667
scalar Network.dyn_peer[91] 	lookupStabilitySig:mean 	0.76293922929714
scalar Network.dyn_peer[91] 	lookupHopsSig:mean 	17.833333333333
scalar Network.dyn_peer[92] 	lookupTimeSig:mean 	1.4666666666667
scalar Network.dyn_peer[92] 	lookupStabilitySig:mean 	0.391215523084
scalar Network.dyn_peer[92] 	lookupHopsSig:mean 	14
scalar Network.dyn_peer[93] 	lookupTimeSig:mean 	2.3714285714286
scalar Network.dyn_peer[93] 	lookupStabilitySig:mean 	0.93191298616252
scalar Network.dyn_peer[93] 	lookupHopsSig:mean 	22.857142857143
scalar Network.dyn_peer[94] 	lookupTimeSig:mean 	1.6
scalar Network.dyn_peer[94] 	lookupStabilitySig:mean 	0.30331262946129
scalar Network.dyn_peer[94] 	lookupHopsSig:mean 	15.333333333333
scalar Network.dyn_peer[95] 	lookupTimeSig:mean 	2.46
scalar Network.dyn_peer[95] 	lookupStabilitySig:mean 	0.61587539874017
scalar Network.dyn_peer[95] 	lookupHopsSig:mean 	23.8
scalar Network.dyn_peer[96] 	lookupTimeSig:mean 	1.55
scalar Network.dyn_peer[96] 	lookupStabilitySig:mean 	0.77050383668393
scalar Network.dyn_peer[96] 	lookupHopsSig:mean 	14.666666666667
scalar Network.dyn_peer[97] 	lookupTimeSig:mean 	2.4
scalar Network.dyn_peer[97] 	lookupStabilitySig:mean 	0.37579165771604
scalar Network.dyn_peer[97] 	lookupHopsSig:mean 	23.25
scalar Network.dyn_peer[98] 	lookupTimeSig:mean 	1.4666666666667
scalar Network.dyn_peer[98] 	lookupStabilitySig:mean 	0.76190476243695
scalar Network.dyn_peer[98] 	lookupHopsSig:mean 	14
scalar Network.dyn_peer[99] 	lookupTimeSig:mean 	1.26
scalar Network.dyn_peer[99] 	lookupStabilitySig:mean 	0.45889275148511
scalar Network.dyn_peer[99] 	lookupHopsSig:mean 	11.8
scalar Network.dyn_peer[100] 	lookupTimeSig:mean 	1.78
scalar Network.dyn_peer[100] 	lookupStabilitySig:mean 	0.59838248342276
scalar Network.dyn_peer[100] 	lookupHopsSig:mean 	17
scalar Network.dyn_peer[101] 	lookupTimeSig:mean 	2.5285714285714
scalar Network.dyn_peer[101] 	lookupStabilitySig:mean 	0.64751641345876
scalar Network.dyn_peer[101] 	lookupHopsSig:mean 	24.428571428571
scalar Network.dyn_peer[102] 	lookupTimeSig:mean 	2.175
scalar Network.dyn_peer[102] 	lookupStabilitySig:mean 	0.59314086101949
scalar Network.dyn_peer[102] 	lookupHopsSig:mean 	21
scalar Network.dyn_peer[103] 	lookupTimeSig:mean 	1.6
scalar Network.dyn_peer[103] 	lookupStabilitySig:mean 	0.63760703163488
scalar Network.dyn_peer[103] 	lookupHopsSig:mean 	15.142857142857
scalar Network.dyn_peer[104] 	lookupTimeSig:mean 	1.2285714285714
scalar Network.dyn_peer[104] 	lookupStabilitySig:mean 	0.71239296267075
scalar Network.dyn_peer[104] 	lookupHopsSig:mean 	11.428571428571
scalar Network.dyn_peer[105] 	lookupTimeSig:mean 	1.7333333333333
scalar Network.dyn_peer[105] 	lookupStabilitySig:mean 	0.83471023042997
scalar Network.dyn_peer[105] 	lookupHopsSig:mean 	16.444444444444
scalar Network.dyn_peer[106] 	lookupTimeSig:mean 	1.6285714285714
scalar Network.dyn_peer[106] 	lookupStabilitySig:mean 	0.86720379242407
scalar Network.dyn_peer[106] 	lookupHopsSig:mean 	15.428571428571
scalar Network.dyn_peer[107] 	lookupTimeSig:mean 	2.1285714285714
scalar Network.dyn_peer[107] 	lookupStabilitySig:mean 	0.82171046454459
scalar Network.dyn_peer[107] 	lookupHopsSig:mean 	20.428571428571
scalar Network.dyn_peer[108] 	lookupTimeSig:mean 	1.3714285714286
scalar Network.dyn_peer[108] 	lookupStabilitySig:mean 	0.84347116005873
scalar Network.dyn_peer[108] 	lookupHopsSig:mean 	12.785714285714
scalar Network.dyn_peer[109] 	lookupTimeSig:mean 	2.0333333333333
scalar Network.dyn_peer[109] 	lookupStabilitySig:mean 	0.61777299673607
scalar Network.dyn_peer[109] 	lookupHopsSig:mean 	19.5
scalar Network.dyn_peer[110] 	lookupTimeSig:mean 	2.96
scalar Network.dyn_peer[110] 	lookupStabilitySig:mean 	0.87240229509771
scalar Network.dyn_peer[110] 	lookupHopsSig:mean 	28.8
scalar Network.dyn_peer[111] 	lookupTimeSig:mean 	1.6
scalar Network.dyn_peer[111] 	lookupStabilitySig:mean 	0.84834954738617
scalar Network.dyn_peer[111] 	lookupHopsSig:mean 	15.1
scalar Network.dyn_peer[112] 	lookupTimeSig:mean 	1.5
scalar Network.dyn_peer[112] 	lookupStabilitySig:mean 	0.91451371208365
scalar Network.dyn_peer[112] 	lookupHopsSig:mean 	14.071428571429
scalar Network.dyn_peer[113] 	lookupTimeSig:mean 	1.5066666666667
scalar Network.dyn_peer[113] 	lookupStabilitySig:mean 	0.81058684078356
scalar Network.dyn_peer[113] 	lookupHopsSig:mean 	14.133333333333
scalar Network.dyn_peer[114] 	lookupTimeSig:mean 	1.3333333333333
scalar Network.dyn_peer[114] 	lookupStabilitySig:mean 	0.68162829428911
scalar Network.dyn_peer[114] 	lookupHopsSig:mean 	12.666666666667
scalar Network.dyn_peer[115] 	lookupTimeSig:mean 	1.9666666666667
scalar Network.dyn_peer[115] 	lookupStabilitySig:mean 	0.60613413155079
scalar Network.dyn_peer[115] 	lookupHopsSig:mean 	19
scalar Network.dyn_peer[116] 	lookupTimeSig:mean 	1.325
scalar Network.dyn_peer[116] 	lookupStabilitySig:mean 	0.77957418019651
scalar Network.dyn_peer[116] 	lookupHopsSig:mean 	12.375
scalar Network.dyn_peer[117] 	lookupTimeSig:mean 	2.1714285714286
scalar Network.dyn_peer[117] 	lookupStabilitySig:mean 	0.69071472170097
scalar Network.dyn_peer[117] 	lookupHopsSig:mean 	20.857142857143
scalar Network.dyn_peer[118] 	lookupTimeSig:mean 	1.9125
scalar Network.dyn_peer[118] 	lookupStabilitySig:mean 	0.70686856959946
scalar Network.dyn_peer[118] 	lookupHopsSig:mean 	18.25
scalar Network.dyn_peer[119] 	lookupTimeSig:mean 	1.875
scalar Network.dyn_peer[119] 	lookupStabilitySig:mean 	0.71308584418148
scalar Network.dyn_peer[119] 	lookupHopsSig:mean 	18
scalar Network.dyn_peer[120] 	lookupTimeSig:mean 	1.975
scalar Network.dyn_peer[120] 	lookupStabilitySig:mean 	0.78227132931352
scalar Network.dyn_peer[120] 	lookupHopsSig:mean 	19
scalar Network.dyn_peer[121] 	lookupTimeSig:mean 	1.0666666666667
scalar Network.dyn_peer[121] 	lookupStabilitySig:mean 	0.65804119408131
scalar Network.dyn_peer[121] 	lookupHopsSig:mean 	9.8333333333333
scalar Network.dyn_peer[122] 	lookupTimeSig:mean 	3.1
scalar Network.dyn_peer[122] 	lookupStabilitySig:mean 	0.7228442505002
scalar Network.dyn_peer[122] 	lookupHopsSig:mean 	30.5
scalar Network.dyn_peer[123] 	lookupTimeSig:mean 	1.7375
scalar Network.dyn_peer[123] 	lookupStabilitySig:mean 	0.84366600413341
scalar Network.dyn_peer[123] 	lookupHopsSig:mean 	16.5
scalar Network.dyn_peer[124] 	lookupTimeSig:mean 	2.0444444444444
scalar Network.dyn_peer[124] 	lookupStabilitySig:mean 	0.9381322576147
scalar Network.dyn_peer[124] 	lookupHopsSig:mean 	19.555555555556
scalar Network.dyn_peer[125] 	lookupTimeSig:mean 	1.56
scalar Network.dyn_peer[125] 	lookupStabilitySig:mean 	0.58008408844471
scalar Network.dyn_peer[125] 	lookupHopsSig:mean 	14.8
scalar Network.dyn_peer[126] 	lookupTimeSig:mean 	1.4
scalar Network.dyn_peer[126] 	lookupStabilitySig:mean 	0.85088152198919
scalar Network.dyn_peer[126] 	lookupHopsSig:mean 	13.142857142857
scalar Network.dyn_peer[127] 	lookupTimeSig:mean 	0.92
scalar Network.dyn_peer[127] 	lookupStabilitySig:mean 	0.51299009546638
scalar Network.dyn_peer[127] 	lookupHopsSig:mean 	8.4
scalar Network.dyn_peer[128] 	lookupTimeSig:mean 	2.3333333333333
scalar Network.dyn_peer[128] 	lookupStabilitySig:mean 	0.69317607333263
scalar Network.dyn_peer[128] 	lookupHopsSig:mean 	22.5
scalar Network.dyn_peer[129] 	lookupTimeSig:mean 	1.4833333333333
scalar Network.dyn_peer[129] 	lookupStabilitySig:mean 	0.67475267437597
scalar Network.dyn_peer[129] 	lookupHopsSig:mean 	14
scalar Network.dyn_peer[130] 	lookupTimeSig:mean 	1.6875
scalar Network.dyn_peer[130] 	lookupStabilitySig:mean 	0.86297466536053
scalar Network.dyn_peer[130] 	lookupHopsSig:mean 	16
scalar Network.dyn_peer[131] 	lookupTimeSig:mean 	1.5833333333333
scalar Network.dyn_peer[131] 	lookupStabilitySig:mean 	0.66800659382716
scalar Network.dyn_peer[131] 	lookupHopsSig:mean 	15
scalar Network.dyn_peer[132] 	lookupTimeSig:mean 	1.85
scalar Network.dyn_peer[132] 	lookupStabilitySig:mean 	0.63214818830602
scalar Network.dyn_peer[132] 	lookupHopsSig:mean 	17.75
scalar Network.dyn_peer[133] 	lookupTimeSig:mean 	1.225
scalar Network.dyn_peer[133] 	lookupStabilitySig:mean 	0.44028327427804
scalar Network.dyn_peer[133] 	lookupHopsSig:mean 	11.5
scalar Network.dyn_peer[134] 	lookupTimeSig:mean 	2.4428571428571
scalar Network.dyn_peer[134] 	lookupStabilitySig:mean 	0.93585219686585
scalar Network.dyn_peer[134] 	lookupHopsSig:mean 	23.571428571429
scalar Network.dyn_peer[135] 	lookupTimeSig:mean 	1.18
scalar Network.dyn_peer[135] 	lookupStabilitySig:mean 	0.57013920992613
scalar Network.dyn_peer[135] 	lookupHopsSig:mean 	11
scalar Network.dyn_peer[136] 	lookupTimeSig:mean 	2.1833333333333
scalar Network.dyn_peer[136] 	lookupStabilitySig:mean 	0.92254538973793
scalar Network.dyn_peer[136] 	lookupHopsSig:mean 	21
scalar Network.dyn_peer[137] 	lookupTimeSig:mean 	1.9
scalar Network.dyn_peer[137] 	lookupStabilitySig:mean 	0.51636829227209
scalar Network.dyn_peer[137] 	lookupHopsSig:mean 	18.2
scalar Network.dyn_peer[138] 	lookupTimeSig:mean 	1.325
scalar Network.dyn_peer[138] 	lookupStabilitySig:mean 	0.6986013893038
scalar Network.dyn_peer[138] 	lookupHopsSig:mean 	12.5
scalar Network.dyn_peer[139] 	lookupTimeSig:mean 	2.3
scalar Network.dyn_peer[139] 	lookupStabilitySig:mean 	0.88200940151
scalar Network.dyn_peer[139] 	lookupHopsSig:mean 	22.125
scalar Network.dyn_peer[140] 	lookupTimeSig:mean 	3.4333333333333
scalar Network.dyn_peer[140] 	lookupStabilitySig:mean 	0.770979916056
scalar Network.dyn_peer[140] 	lookupHopsSig:mean 	33.666666666667
scalar Network.dyn_peer[141] 	lookupTimeSig:mean 	1.025
scalar Network.dyn_peer[141] 	lookupStabilitySig:mean 	0.61018173582852
scalar Network.dyn_peer[141] 	lookupHopsSig:mean 	9.5
scalar Network.dyn_peer[142] 	lookupTimeSig:mean 	2.11
scalar Network.dyn_peer[142] 	lookupStabilitySig:mean 	0.77532285116613
scalar Network.dyn_peer[142] 	lookupHopsSig:mean 	20.2
scalar Network.dyn_peer[143] 	lookupTimeSig:mean 	2.13
scalar Network.dyn_peer[143] 	lookupStabilitySig:mean 	0.93091624220833
scalar Network.dyn_peer[143] 	lookupHopsSig:mean 	20.4
scalar Network.dyn_peer[144] 	lookupTimeSig:mean 	2.125
scalar Network.dyn_peer[144] 	lookupStabilitySig:mean 	0.60485695442185
scalar Network.dyn_peer[144] 	lookupHopsSig:mean 	20.5
scalar Network.dyn_peer[145] 	lookupTimeSig:mean 	2.0285714285714
scalar Network.dyn_peer[145] 	lookupStabilitySig:mean 	0.67236257570663
scalar Network.dyn_peer[145] 	lookupHopsSig:mean 	19.428571428571
scalar Network.dyn_peer[146] 	lookupTimeSig:mean 	1.0444444444444
scalar Network.dyn_peer[146] 	lookupStabilitySig:mean 	0.77921303009821
scalar Network.dyn_peer[146] 	lookupHopsSig:mean 	9.5555555555556
scalar Network.dyn_peer[147] 	lookupTimeSig:mean 	1.3
scalar Network.dyn_peer[147] 	lookupStabilitySig:mean 	0.80174912652001
scalar Network.dyn_peer[147] 	lookupHopsSig:mean 	12.125
scalar Network.dyn_peer[148] 	lookupTimeSig:mean 	2.0571428571429
scalar Network.dyn_peer[148] 	lookupStabilitySig:mean 	0.93111959831523
scalar Network.dyn_peer[148] 	lookupHopsSig:mean 	19.714285714286
scalar Network.dyn_peer[149] 	lookupTimeSig:mean 	2.54
scalar Network.dyn_peer[149] 	lookupStabilitySig:mean 	0.7433957349509
scalar Network.dyn_peer[149] 	lookupHopsSig:mean 	24.6
scalar Network.dyn_peer[150] 	lookupTimeSig:mean 	1.48
scalar Network.dyn_peer[150] 	lookupStabilitySig:mean 	0.61756975874305
scalar Network.dyn_peer[150] 	lookupHopsSig:mean 	14
scalar Network.dyn_peer[151] 	lookupTimeSig:mean 	2.8333333333333
scalar Network.dyn_peer[151] 	lookupStabilitySig:mean 	0.79707477241755
scalar Network.dyn_peer[151] 	lookupHopsSig:mean 	27.666666666667
scalar Network.dyn_peer[152] 	lookupTimeSig:mean 	2.7
scalar Network.dyn_peer[152] 	lookupStabilitySig:mean 	0.36128203570843
scalar Network.dyn_peer[152] 	lookupHopsSig:mean 	26.25
scalar Network.dyn_peer[153] 	lookupTimeSig:mean 	1.9
scalar Network.dyn_peer[153] 	lookupStabilitySig:mean 	0.62963954359293
scalar Network.dyn_peer[153] 	lookupHopsSig:mean 	18.2
scalar Network.dyn_peer[154] 	lookupTimeSig:mean 	1.8
scalar Network.dyn_peer[154] 	lookupStabilitySig:mean 	0.72281097873513
scalar Network.dyn_peer[154] 	lookupHopsSig:mean 	17.142857142857
scalar Network.dyn_peer[155] 	lookupTimeSig:mean 	1.3
scalar Network.dyn_peer[155] 	lookupStabilitySig:mean 	0.92860539781395
scalar Network.dyn_peer[155] 	lookupHopsSig:mean 	12.125
scalar Network.dyn_peer[156] 	lookupTimeSig:mean 	1.575
scalar Network.dyn_peer[156] 	lookupStabilitySig:mean 	0.84926519938745
scalar Network.dyn_peer[156] 	lookupHopsSig:mean 	14.875
scalar Network.dyn_peer[157] 	lookupTimeSig:mean 	1.575
scalar Network.dyn_peer[157] 	lookupStabilitySig:mean 	0.91300256073009
scalar Network.dyn_peer[157] 	lookupHopsSig:mean 	14.875
scalar Network.dyn_peer[158] 	lookupTimeSig:mean 	1.3636363636364
scalar Network.dyn_peer[158] 	lookupStabilitySig:mean 	0.88660942213821
scalar Network.dyn_peer[158] 	lookupHopsSig:mean 	12.727272727273
scalar Network.dyn_peer[159] 	lookupTimeSig:mean 	1.0833333333333
scalar Network.dyn_peer[159] 	lookupStabilitySig:mean 	0.53394052106887
scalar Network.dyn_peer[159] 	lookupHopsSig:mean 	10
scalar Network.dyn_peer[160] 	lookupTimeSig:mean 	1.4666666666667
scalar Network.dyn_peer[160] 	lookupStabilitySig:mean 	0.86331660665261
scalar Network.dyn_peer[160] 	lookupHopsSig:mean 	13.777777777778
scalar Network.dyn_peer[161] 	lookupTimeSig:mean 	1.5333333333333
scalar Network.dyn_peer[161] 	lookupStabilitySig:mean 	0.4358490506808
scalar Network.dyn_peer[161] 	lookupHopsSig:mean 	14.666666666667
scalar Network.dyn_peer[162] 	lookupTimeSig:mean 	1.375
scalar Network.dyn_peer[162] 	lookupStabilitySig:mean 	0.7228425659705
scalar Network.dyn_peer[162] 	lookupHopsSig:mean 	12.875
scalar Network.dyn_peer[163] 	lookupTimeSig:mean 	3.4333333333333
scalar Network.dyn_peer[163] 	lookupStabilitySig:mean 	0.76647418613235
scalar Network.dyn_peer[163] 	lookupHopsSig:mean 	33.666666666667
scalar Network.dyn_peer[164] 	lookupTimeSig:mean 	1.8714285714286
scalar Network.dyn_peer[164] 	lookupStabilitySig:mean 	0.92636163279946
scalar Network.dyn_peer[164] 	lookupHopsSig:mean 	17.857142857143
scalar Network.dyn_peer[165] 	lookupTimeSig:mean 	2.8833333333333
scalar Network.dyn_peer[165] 	lookupStabilitySig:mean 	0.93568123178557
scalar Network.dyn_peer[165] 	lookupHopsSig:mean 	28
scalar Network.dyn_peer[166] 	lookupTimeSig:mean 	1.7666666666667
scalar Network.dyn_peer[166] 	lookupStabilitySig:mean 	0.938137938165
scalar Network.dyn_peer[166] 	lookupHopsSig:mean 	16.777777777778
scalar Network.dyn_peer[167] 	lookupTimeSig:mean 	1.0333333333333
scalar Network.dyn_peer[167] 	lookupStabilitySig:mean 	0.67176495306194
scalar Network.dyn_peer[167] 	lookupHopsSig:mean 	9.5
scalar Network.dyn_peer[168] 	lookupTimeSig:mean 	2.35
scalar Network.dyn_peer[168] 	lookupStabilitySig:mean 	0.8947077668272
scalar Network.dyn_peer[168] 	lookupHopsSig:mean 	22.75
scalar Network.dyn_peer[169] 	lookupTimeSig:mean 	3.7
scalar Network.dyn_peer[169] 	lookupStabilitySig:mean 	0.2214285954833
scalar Network.dyn_peer[169] 	lookupHopsSig:mean 	36.5
scalar Network.dyn_peer[170] 	lookupTimeSig:mean 	2.225
scalar Network.dyn_peer[170] 	lookupStabilitySig:mean 	0.63438519369811
scalar Network.dyn_peer[170] 	lookupHopsSig:mean 	21.5
scalar Network.dyn_peer[171] 	lookupTimeSig:mean 	1.575
scalar Network.dyn_peer[171] 	lookupStabilitySig:mean 	0.43700525071472
scalar Network.dyn_peer[171] 	lookupHopsSig:mean 	15
scalar Network.dyn_peer[172] 	lookupTimeSig:mean 	2.5
scalar Network.dyn_peer[172] 	lookupStabilitySig:mean 	0.63889061361551
scalar Network.dyn_peer[172] 	lookupHopsSig:mean 	24.2
scalar Network.dyn_peer[173] 	lookupTimeSig:mean 	1.8222222222222
scalar Network.dyn_peer[173] 	lookupStabilitySig:mean 	0.7547621893593
scalar Network.dyn_peer[173] 	lookupHopsSig:mean 	17.333333333333
scalar Network.dyn_peer[174] 	lookupTimeSig:mean 	2.1
scalar Network.dyn_peer[174] 	lookupStabilitySig:mean 	0.43954942127069
scalar Network.dyn_peer[174] 	lookupHopsSig:mean 	20.333333333333
scalar Network.dyn_peer[175] 	lookupTimeSig:mean 	3.1
scalar Network.dyn_peer[175] 	lookupStabilitySig:mean 	0.87345130043104
scalar Network.dyn_peer[175] 	lookupHopsSig:mean 	30.25
scalar Network.dyn_peer[176] 	lookupTimeSig:mean 	1.3090909090909
scalar Network.dyn_peer[176] 	lookupStabilitySig:mean 	0.81391602661461
scalar Network.dyn_peer[176] 	lookupHopsSig:mean 	12.181818181818
scalar Network.dyn_peer[177] 	lookupTimeSig:mean 	2.5428571428571
scalar Network.dyn_peer[177] 	lookupStabilitySig:mean 	0.93864885491452
scalar Network.dyn_peer[177] 	lookupHopsSig:mean 	24.571428571429
scalar Network.dyn_peer[178] 	lookupTimeSig:mean 	2.6
scalar Network.dyn_peer[178] 	lookupStabilitySig:mean 	0.8382718693465
scalar Network.dyn_peer[178] 	lookupHopsSig:mean 	25.25
scalar Network.dyn_peer[179] 	lookupTimeSig:mean 	1.775
scalar Network.dyn_peer[179] 	lookupStabilitySig:mean 	0.49430437665433
scalar Network.dyn_peer[179] 	lookupHopsSig:mean 	17
scalar Network.dyn_peer[180] 	lookupTimeSig:mean 	1.65
scalar Network.dyn_peer[180] 	lookupStabilitySig:mean 	0.6296252720058
scalar Network.dyn_peer[180] 	lookupHopsSig:mean 	15.75
scalar Network.dyn_peer[181] 	lookupTimeSig:mean 	1.4428571428571
scalar Network.dyn_peer[181] 	lookupStabilitySig:mean 	0.67303376777896
scalar Network.dyn_peer[181] 	lookupHopsSig:mean 	13.571428571429
scalar Network.dyn_peer[182] 	lookupTimeSig:mean 	2.65
scalar Network.dyn_peer[182] 	lookupStabilitySig:mean 	0.51360968127847
scalar Network.dyn_peer[182] 	lookupHopsSig:mean 	25.75
scalar Network.dyn_peer[183] 	lookupTimeSig:mean 	2.725
scalar Network.dyn_peer[183] 	lookupStabilitySig:mean 	0.76411457546055
scalar Network.dyn_peer[183] 	lookupHopsSig:mean 	26.5
scalar Network.dyn_peer[184] 	lookupTimeSig:mean 	1.4875
scalar Network.dyn_peer[184] 	lookupStabilitySig:mean 	0.90936071111355
scalar Network.dyn_peer[184] 	lookupHopsSig:mean 	14
scalar Network.dyn_peer[185] 	lookupTimeSig:mean 	1.9916666666667
scalar Network.dyn_peer[185] 	lookupStabilitySig:mean 	0.94857771504515
scalar Network.dyn_peer[185] 	lookupHopsSig:mean 	19
scalar Network.dyn_peer[186] 	lookupTimeSig:mean 	3.2333333333333
scalar Network.dyn_peer[186] 	lookupStabilitySig:mean 	0.64240215967099
scalar Network.dyn_peer[186] 	lookupHopsSig:mean 	31.666666666667
scalar Network.dyn_peer[187] 	lookupTimeSig:mean 	1.97
scalar Network.dyn_peer[187] 	lookupStabilitySig:mean 	0.88040969334543
scalar Network.dyn_peer[187] 	lookupHopsSig:mean 	18.8
scalar Network.dyn_peer[188] 	lookupTimeSig:mean 	1.6
scalar Network.dyn_peer[188] 	lookupStabilitySig:mean 	0.018207296729088
scalar Network.dyn_peer[188] 	lookupHopsSig:mean 	15.5
scalar Network.dyn_peer[189] 	lookupTimeSig:mean 	1.25
scalar Network.dyn_peer[189] 	lookupStabilitySig:mean 	0.78916509705596
scalar Network.dyn_peer[189] 	lookupHopsSig:mean 	11.6
scalar Network.dyn_peer[190] 	lookupTimeSig:mean 	1.38
scalar Network.dyn_peer[190] 	lookupStabilitySig:mean 	0.74620143547654
scalar Network.dyn_peer[190] 	lookupHopsSig:mean 	13
scalar Network.dyn_peer[191] 	lookupTimeSig:mean 	1.9
scalar Network.dyn_peer[191] 	lookupStabilitySig:mean 	0.5091346129775
scalar Network.dyn_peer[191] 	lookupHopsSig:mean 	18.5
scalar Network.dyn_peer[192] 	lookupTimeSig:mean 	1.675
scalar Network.dyn_peer[192] 	lookupStabilitySig:mean 	0.7045907046413
scalar Network.dyn_peer[192] 	lookupHopsSig:mean 	15.875
scalar Network.dyn_peer[193] 	lookupTimeSig:mean 	1.52
scalar Network.dyn_peer[193] 	lookupStabilitySig:mean 	0.61994694545865
scalar Network.dyn_peer[193] 	lookupHopsSig:mean 	14.4
scalar Network.dyn_peer[194] 	lookupTimeSig:mean 	1.5
scalar Network.dyn_peer[194] 	lookupStabilitySig:mean 	0.69667362741062
scalar Network.dyn_peer[194] 	lookupHopsSig:mean 	14.142857142857
scalar Network.dyn_peer[195] 	lookupTimeSig:mean 	2.15
scalar Network.dyn_peer[195] 	lookupStabilitySig:mean 	0.56518081575632
scalar Network.dyn_peer[195] 	lookupHopsSig:mean 	21
scalar Network.dyn_peer[196] 	lookupTimeSig:mean 	1.625
scalar Network.dyn_peer[196] 	lookupStabilitySig:mean 	0.81243817508221
scalar Network.dyn_peer[196] 	lookupHopsSig:mean 	15.5
scalar Network.dyn_peer[197] 	lookupTimeSig:mean 	1.52
scalar Network.dyn_peer[197] 	lookupStabilitySig:mean 	0.7954739741981
scalar Network.dyn_peer[197] 	lookupHopsSig:mean 	14.4
scalar Network.dyn_peer[198] 	lookupTimeSig:mean 	2.06
scalar Network.dyn_peer[198] 	lookupStabilitySig:mean 	0.71365714892745
scalar Network.dyn_peer[198] 	lookupHopsSig:mean 	19.8
scalar Network.dyn_peer[199] 	lookupTimeSig:mean 	1.4125
scalar Network.dyn_peer[199] 	lookupStabilitySig:mean 	0.69126829900779
scalar Network.dyn_peer[199] 	lookupHopsSig:mean 	13.25
scalar Network.dyn_peer[200] 	lookupTimeSig:mean 	1.575
scalar Network.dyn_peer[200] 	lookupStabilitySig:mean 	0.48741621896625
scalar Network.dyn_peer[200] 	lookupHopsSig:mean 	15
scalar Network.dyn_peer[201] 	lookupTimeSig:mean 	0.925
scalar Network.dyn_peer[201] 	lookupStabilitySig:mean 	0.54609280172735
scalar Network.dyn_peer[201] 	lookupHopsSig:mean 	8.5
scalar Network.dyn_peer[202] 	lookupTimeSig:mean 	2.6142857142857
scalar Network.dyn_peer[202] 	lookupStabilitySig:mean 	0.94159420739327
scalar Network.dyn_peer[202] 	lookupHopsSig:mean 	25.285714285714
scalar Network.dyn_peer[203] 	lookupTimeSig:mean 	2.0333333333333
scalar Network.dyn_peer[203] 	lookupStabilitySig:mean 	0.87900946040948
scalar Network.dyn_peer[203] 	lookupHopsSig:mean 	19.5
scalar Network.dyn_peer[204] 	lookupTimeSig:mean 	4.5
scalar Network.dyn_peer[204] 	lookupStabilitySig:mean 	0.045141398906708
scalar Network.dyn_peer[204] 	lookupHopsSig:mean 	44.5
scalar Network.dyn_peer[205] 	lookupTimeSig:mean 	1.8888888888889
scalar Network.dyn_peer[205] 	lookupStabilitySig:mean 	0.79252756966485
scalar Network.dyn_peer[205] 	lookupHopsSig:mean 	18
scalar Network.dyn_peer[206] 	lookupTimeSig:mean 	2.4714285714286
scalar Network.dyn_peer[206] 	lookupStabilitySig:mean 	0.82185297572453
scalar Network.dyn_peer[206] 	lookupHopsSig:mean 	23.857142857143
scalar Network.dyn_peer[207] 	lookupTimeSig:mean 	2
scalar Network.dyn_peer[207] 	lookupStabilitySig:mean 	-0.0319634526968
scalar Network.dyn_peer[207] 	lookupHopsSig:mean 	19.5
scalar Network.dyn_peer[208] 	lookupTimeSig:mean 	1.4166666666667
scalar Network.dyn_peer[208] 	lookupStabilitySig:mean 	0.69475878324981
scalar Network.dyn_peer[208] 	lookupHopsSig:mean 	13.333333333333
scalar Network.dyn_peer[209] 	lookupTimeSig:mean 	3.35
scalar Network.dyn_peer[209] 	lookupStabilitySig:mean 	0.65125165507197
scalar Network.dyn_peer[209] 	lookupHopsSig:mean 	33
scalar Network.dyn_peer[210] 	lookupTimeSig:mean 	1.6857142857143
scalar Network.dyn_peer[210] 	lookupStabilitySig:mean 	0.69905428827873
scalar Network.dyn_peer[210] 	lookupHopsSig:mean 	16
scalar Network.dyn_peer[211] 	lookupTimeSig:mean 	2.425
scalar Network.dyn_peer[211] 	lookupStabilitySig:mean 	0.61932113859802
scalar Network.dyn_peer[211] 	lookupHopsSig:mean 	23.5
scalar Network.dyn_peer[212] 	lookupTimeSig:mean 	1.6636363636364
scalar Network.dyn_peer[212] 	lookupStabilitySig:mean 	0.91816401333463
scalar Network.dyn_peer[212] 	lookupHopsSig:mean 	15.727272727273
scalar Network.dyn_peer[213] 	lookupTimeSig:mean 	1.7
scalar Network.dyn_peer[213] 	lookupStabilitySig:mean 	0.76954540501659
scalar Network.dyn_peer[213] 	lookupHopsSig:mean 	16.111111111111
scalar Network.dyn_peer[214] 	lookupTimeSig:mean 	1.8142857142857
scalar Network.dyn_peer[214] 	lookupStabilitySig:mean 	0.68110758119396
scalar Network.dyn_peer[214] 	lookupHopsSig:mean 	17.285714285714
scalar Network.dyn_peer[215] 	lookupTimeSig:mean 	1.85
scalar Network.dyn_peer[215] 	lookupStabilitySig:mean 	0.42086894437671
scalar Network.dyn_peer[215] 	lookupHopsSig:mean 	17.75
scalar Network.dyn_peer[216] 	lookupTimeSig:mean 	1.03125
scalar Network.dyn_peer[216] 	lookupStabilitySig:mean 	0.83285511075519
scalar Network.dyn_peer[216] 	lookupHopsSig:mean 	9.375
scalar Network.dyn_peer[217] 	lookupTimeSig:mean 	1.8
scalar Network.dyn_peer[217] 	lookupStabilitySig:mean 	0.61789473891258
scalar Network.dyn_peer[217] 	lookupHopsSig:mean 	17.2
scalar Network.dyn_peer[218] 	lookupTimeSig:mean 	3.24
scalar Network.dyn_peer[218] 	lookupStabilitySig:mean 	0.77370746694505
scalar Network.dyn_peer[218] 	lookupHopsSig:mean 	31.6
scalar Network.dyn_peer[219] 	lookupTimeSig:mean 	2.0571428571429
scalar Network.dyn_peer[219] 	lookupStabilitySig:mean 	0.89880115658577
scalar Network.dyn_peer[219] 	lookupHopsSig:mean 	19.714285714286
scalar Network.dyn_peer[220] 	lookupTimeSig:mean 	1.1714285714286
scalar Network.dyn_peer[220] 	lookupStabilitySig:mean 	0.64265783397215
scalar Network.dyn_peer[220] 	lookupHopsSig:mean 	10.857142857143
scalar Network.dyn_peer[221] 	lookupTimeSig:mean 	2.6
scalar Network.dyn_peer[221] 	lookupStabilitySig:mean 	0.52149827778339
scalar Network.dyn_peer[221] 	lookupHopsSig:mean 	25.25
scalar Network.dyn_peer[222] 	lookupTimeSig:mean 	1.775
scalar Network.dyn_peer[222] 	lookupStabilitySig:mean 	0.47230624547228
scalar Network.dyn_peer[222] 	lookupHopsSig:mean 	17
scalar Network.dyn_peer[223] 	lookupTimeSig:mean 	0.95555555555556
scalar Network.dyn_peer[223] 	lookupStabilitySig:mean 	0.7184051019657
scalar Network.dyn_peer[223] 	lookupHopsSig:mean 	8.6666666666667
scalar Network.dyn_peer[224] 	lookupTimeSig:mean 	1.4888888888889
scalar Network.dyn_peer[224] 	lookupStabilitySig:mean 	0.90337010589428
scalar Network.dyn_peer[224] 	lookupHopsSig:mean 	14
scalar Network.dyn_peer[225] 	lookupTimeSig:mean 	1.8875
scalar Network.dyn_peer[225] 	lookupStabilitySig:mean 	0.8547961571021
scalar Network.dyn_peer[225] 	lookupHopsSig:mean 	18
scalar Network.dyn_peer[226] 	lookupTimeSig:mean 	1.525
scalar Network.dyn_peer[226] 	lookupStabilitySig:mean 	0.76175041036913
scalar Network.dyn_peer[226] 	lookupHopsSig:mean 	14.375
scalar Network.dyn_peer[227] 	lookupTimeSig:mean 	1.45
scalar Network.dyn_peer[227] 	lookupStabilitySig:mean 	0.58477312140167
scalar Network.dyn_peer[227] 	lookupHopsSig:mean 	13.75
scalar Network.dyn_peer[228] 	lookupTimeSig:mean 	1.275
scalar Network.dyn_peer[228] 	lookupStabilitySig:mean 	0.78933614533162
scalar Network.dyn_peer[228] 	lookupHopsSig:mean 	11.875
scalar Network.dyn_peer[229] 	lookupTimeSig:mean 	1.56
scalar Network.dyn_peer[229] 	lookupStabilitySig:mean 	0.59763043001294
scalar Network.dyn_peer[229] 	lookupHopsSig:mean 	14.8
scalar Network.dyn_peer[230] 	lookupTimeSig:mean 	1.4363636363636
scalar Network.dyn_peer[230] 	lookupStabilitySig:mean 	0.88952170625668
scalar Network.dyn_peer[230] 	lookupHopsSig:mean 	13.454545454545
scalar Network.dyn_peer[231] 	lookupTimeSig:mean 	2.5
scalar Network.dyn_peer[231] 	lookupStabilitySig:mean 	0.94201070921762
scalar Network.dyn_peer[231] 	lookupHopsSig:mean 	24.142857142857
scalar Network.dyn_peer[232] 	lookupTimeSig:mean 	2.1444444444444
scalar Network.dyn_peer[232] 	lookupStabilitySig:mean 	0.89458719227049
scalar Network.dyn_peer[232] 	lookupHopsSig:mean 	20.555555555556
scalar Network.dyn_peer[233] 	lookupTimeSig:mean 	1.2444444444444
scalar Network.dyn_peer[233] 	lookupStabilitySig:mean 	0.78636295231991
scalar Network.dyn_peer[233] 	lookupHopsSig:mean 	11.555555555556
scalar Network.dyn_peer[234] 	lookupTimeSig:mean 	2.02
scalar Network.dyn_peer[234] 	lookupStabilitySig:mean 	0.75663291048259
scalar Network.dyn_peer[234] 	lookupHopsSig:mean 	19.4
scalar Network.dyn_peer[235] 	lookupTimeSig:mean 	1.525
scalar Network.dyn_peer[235] 	lookupStabilitySig:mean 	0.77073404926341
scalar Network.dyn_peer[235] 	lookupHopsSig:mean 	14.375
scalar Network.dyn_peer[236] 	lookupTimeSig:mean 	2.1833333333333
scalar Network.dyn_peer[236] 	lookupStabilitySig:mean 	0.7377874700663
scalar Network.dyn_peer[236] 	lookupHopsSig:mean 	21
scalar Network.dyn_peer[237] 	lookupTimeSig:mean 	2.9
scalar Network.dyn_peer[237] 	lookupStabilitySig:mean 	0.58079213043675
scalar Network.dyn_peer[237] 	lookupHopsSig:mean 	28.25
scalar Network.dyn_peer[238] 	lookupTimeSig:mean 	2.58
scalar Network.dyn_peer[238] 	lookupStabilitySig:mean 	0.91918310690671
scalar Network.dyn_peer[238] 	lookupHopsSig:mean 	25
scalar Network.dyn_peer[239] 	lookupTimeSig:mean 	1.5571428571429
scalar Network.dyn_peer[239] 	lookupStabilitySig:mean 	0.85117893017429
scalar Network.dyn_peer[239] 	lookupHopsSig:mean 	14.642857142857
scalar Network.dyn_peer[240] 	lookupTimeSig:mean 	1.7
scalar Network.dyn_peer[240] 	lookupStabilitySig:mean 	0.92842889111489
scalar Network.dyn_peer[240] 	lookupHopsSig:mean 	16.125
scalar Network.dyn_peer[241] 	lookupTimeSig:mean 	1.6
scalar Network.dyn_peer[241] 	lookupStabilitySig:mean 	0.34319923818111
scalar Network.dyn_peer[241] 	lookupHopsSig:mean 	15.333333333333
scalar Network.dyn_peer[242] 	lookupTimeSig:mean 	2.3
scalar Network.dyn_peer[242] 	lookupStabilitySig:mean 	0.87745701195672
scalar Network.dyn_peer[242] 	lookupHopsSig:mean 	22.166666666667
scalar Network.dyn_peer[243] 	lookupTimeSig:mean 	3.825
scalar Network.dyn_peer[243] 	lookupStabilitySig:mean 	0.923291886691
scalar Network.dyn_peer[243] 	lookupHopsSig:mean 	37.5
scalar Network.dyn_peer[244] 	lookupTimeSig:mean 	1.375
scalar Network.dyn_peer[244] 	lookupStabilitySig:mean 	0.81423894432373
scalar Network.dyn_peer[244] 	lookupHopsSig:mean 	13
scalar Network.dyn_peer[245] 	lookupTimeSig:mean 	1.98
scalar Network.dyn_peer[245] 	lookupStabilitySig:mean 	0.77666222155094
scalar Network.dyn_peer[245] 	lookupHopsSig:mean 	19
scalar Network.dyn_peer[246] 	lookupTimeSig:mean 	1.725
scalar Network.dyn_peer[246] 	lookupStabilitySig:mean 	0.9092074225191
scalar Network.dyn_peer[246] 	lookupHopsSig:mean 	16.375
scalar Network.dyn_peer[247] 	lookupTimeSig:mean 	1.62
scalar Network.dyn_peer[247] 	lookupStabilitySig:mean 	0.57740173041821
scalar Network.dyn_peer[247] 	lookupHopsSig:mean 	15.4
scalar Network.dyn_peer[248] 	lookupTimeSig:mean 	2.725
scalar Network.dyn_peer[248] 	lookupStabilitySig:mean 	0.42891409993172
scalar Network.dyn_peer[248] 	lookupHopsSig:mean 	26.5
scalar Network.dyn_peer[249] 	lookupTimeSig:mean 	2.1
scalar Network.dyn_peer[249] 	lookupStabilitySig:mean 	0.92206202975164
scalar Network.dyn_peer[249] 	lookupHopsSig:mean 	20.166666666667
scalar Network.dyn_peer[250] 	lookupTimeSig:mean 	2.2
scalar Network.dyn_peer[250] 	lookupStabilitySig:mean 	0.57886903981368
scalar Network.dyn_peer[250] 	lookupHopsSig:mean 	21.333333333333
scalar Network.dyn_peer[251] 	lookupTimeSig:mean 	2.2
scalar Network.dyn_peer[251] 	lookupStabilitySig:mean 	0.51277180686593
scalar Network.dyn_peer[251] 	lookupHopsSig:mean 	21.2
scalar Network.dyn_peer[252] 	lookupTimeSig:mean 	2.1285714285714
scalar Network.dyn_peer[252] 	lookupStabilitySig:mean 	0.94377431991909
scalar Network.dyn_peer[252] 	lookupHopsSig:mean 	20.428571428571
scalar Network.dyn_peer[253] 	lookupTimeSig:mean 	2.2857142857143
scalar Network.dyn_peer[253] 	lookupStabilitySig:mean 	0.92217717253204
scalar Network.dyn_peer[253] 	lookupHopsSig:mean 	22
scalar Network.dyn_peer[254] 	lookupTimeSig:mean 	1.24
scalar Network.dyn_peer[254] 	lookupStabilitySig:mean 	0.54576474092901
scalar Network.dyn_peer[254] 	lookupHopsSig:mean 	11.6
scalar Network.dyn_peer[255] 	lookupTimeSig:mean 	2.05
scalar Network.dyn_peer[255] 	lookupStabilitySig:mean 	0.81147074963277
scalar Network.dyn_peer[255] 	lookupHopsSig:mean 	19.666666666667
scalar Network.dyn_peer[256] 	lookupTimeSig:mean 	1.2
scalar Network.dyn_peer[256] 	lookupStabilitySig:mean 	0.47935292264447
scalar Network.dyn_peer[256] 	lookupHopsSig:mean 	11.25
scalar Network.dyn_peer[257] 	lookupTimeSig:mean 	1.3333333333333
scalar Network.dyn_peer[257] 	lookupStabilitySig:mean 	0.3194444278876
scalar Network.dyn_peer[257] 	lookupHopsSig:mean 	12.666666666667
scalar Network.dyn_peer[258] 	lookupTimeSig:mean 	2.35
scalar Network.dyn_peer[258] 	lookupStabilitySig:mean 	0.72764600999653
scalar Network.dyn_peer[258] 	lookupHopsSig:mean 	22.75
scalar Network.dyn_peer[259] 	lookupTimeSig:mean 	3.025
scalar Network.dyn_peer[259] 	lookupStabilitySig:mean 	0.88828811689746
scalar Network.dyn_peer[259] 	lookupHopsSig:mean 	29.375
scalar Network.dyn_peer[260] 	lookupTimeSig:mean 	2.3857142857143
scalar Network.dyn_peer[260] 	lookupStabilitySig:mean 	0.77061299833336
scalar Network.dyn_peer[260] 	lookupHopsSig:mean 	23
scalar Network.dyn_peer[261] 	lookupTimeSig:mean 	1.625
scalar Network.dyn_peer[261] 	lookupStabilitySig:mean 	0.94903743130271
scalar Network.dyn_peer[261] 	lookupHopsSig:mean 	15.375
scalar Network.dyn_peer[262] 	lookupTimeSig:mean 	2.85
scalar Network.dyn_peer[262] 	lookupStabilitySig:mean 	0.63113771378994
scalar Network.dyn_peer[262] 	lookupHopsSig:mean 	28
scalar Network.dyn_peer[263] 	lookupTimeSig:mean 	1.4666666666667
scalar Network.dyn_peer[263] 	lookupStabilitySig:mean 	0.4854190548261
scalar Network.dyn_peer[263] 	lookupHopsSig:mean 	14
scalar Network.dyn_peer[264] 	lookupTimeSig:mean 	2.1166666666667
scalar Network.dyn_peer[264] 	lookupStabilitySig:mean 	0.88488280835251
scalar Network.dyn_peer[264] 	lookupHopsSig:mean 	20.333333333333
scalar Network.dyn_peer[265] 	lookupTimeSig:mean 	2.0428571428571
scalar Network.dyn_peer[265] 	lookupStabilitySig:mean 	0.94421360894505
scalar Network.dyn_peer[265] 	lookupHopsSig:mean 	19.571428571429
scalar Network.dyn_peer[266] 	lookupTimeSig:mean 	1.875
scalar Network.dyn_peer[266] 	lookupStabilitySig:mean 	0.86965525802225
scalar Network.dyn_peer[266] 	lookupHopsSig:mean 	18
scalar Network.dyn_peer[267] 	lookupTimeSig:mean 	1.9125
scalar Network.dyn_peer[267] 	lookupStabilitySig:mean 	0.81297383597121
scalar Network.dyn_peer[267] 	lookupHopsSig:mean 	18.25
scalar Network.dyn_peer[268] 	lookupTimeSig:mean 	1.3
scalar Network.dyn_peer[268] 	lookupStabilitySig:mean 	0.85386727144942
scalar Network.dyn_peer[268] 	lookupHopsSig:mean 	12.083333333333
scalar Network.dyn_peer[269] 	lookupTimeSig:mean 	2.08
scalar Network.dyn_peer[269] 	lookupStabilitySig:mean 	0.8892572613433
scalar Network.dyn_peer[269] 	lookupHopsSig:mean 	20
scalar Network.dyn_peer[270] 	lookupTimeSig:mean 	2.0714285714286
scalar Network.dyn_peer[270] 	lookupStabilitySig:mean 	0.87797716738922
scalar Network.dyn_peer[270] 	lookupHopsSig:mean 	19.857142857143
scalar Network.dyn_peer[271] 	lookupTimeSig:mean 	1.7166666666667
scalar Network.dyn_peer[271] 	lookupStabilitySig:mean 	0.71171755592028
scalar Network.dyn_peer[271] 	lookupHopsSig:mean 	16.333333333333
scalar Network.dyn_peer[272] 	lookupTimeSig:mean 	1.5272727272727
scalar Network.dyn_peer[272] 	lookupStabilitySig:mean 	0.94397130498493
scalar Network.dyn_peer[272] 	lookupHopsSig:mean 	14.363636363636
scalar Network.dyn_peer[273] 	lookupTimeSig:mean 	1.625
scalar Network.dyn_peer[273] 	lookupStabilitySig:mean 	0.4708592928946
scalar Network.dyn_peer[273] 	lookupHopsSig:mean 	15.5
scalar Network.dyn_peer[274] 	lookupTimeSig:mean 	1.8
scalar Network.dyn_peer[274] 	lookupStabilitySig:mean 	0.83283075224608
scalar Network.dyn_peer[274] 	lookupHopsSig:mean 	17.076923076923
scalar Network.dyn_peer[275] 	lookupTimeSig:mean 	0.72
scalar Network.dyn_peer[275] 	lookupStabilitySig:mean 	0.58641897663474
scalar Network.dyn_peer[275] 	lookupHopsSig:mean 	6.4
scalar Network.dyn_peer[276] 	lookupTimeSig:mean 	1.7785714285714
scalar Network.dyn_peer[276] 	lookupStabilitySig:mean 	0.93488638856382
scalar Network.dyn_peer[276] 	lookupHopsSig:mean 	16.857142857143
scalar Network.dyn_peer[277] 	lookupTimeSig:mean 	2.5
scalar Network.dyn_peer[277] 	lookupStabilitySig:mean 	0.91192836114205
scalar Network.dyn_peer[277] 	lookupHopsSig:mean 	24.2
scalar Network.dyn_peer[278] 	lookupTimeSig:mean 	2.5666666666667
scalar Network.dyn_peer[278] 	lookupStabilitySig:mean 	0.72926516334216
scalar Network.dyn_peer[278] 	lookupHopsSig:mean 	25
scalar Network.dyn_peer[279] 	lookupTimeSig:mean 	1.275
scalar Network.dyn_peer[279] 	lookupStabilitySig:mean 	0.41259909886867
scalar Network.dyn_peer[279] 	lookupHopsSig:mean 	12
scalar Network.dyn_peer[280] 	lookupTimeSig:mean 	2.775
scalar Network.dyn_peer[280] 	lookupStabilitySig:mean 	0.87563655618578
scalar Network.dyn_peer[280] 	lookupHopsSig:mean 	27
scalar Network.dyn_peer[281] 	lookupTimeSig:mean 	1.8444444444444
scalar Network.dyn_peer[281] 	lookupStabilitySig:mean 	0.86089025386092
scalar Network.dyn_peer[281] 	lookupHopsSig:mean 	17.555555555556
scalar Network.dyn_peer[282] 	lookupTimeSig:mean 	2.32
scalar Network.dyn_peer[282] 	lookupStabilitySig:mean 	0.8863086592406
scalar Network.dyn_peer[282] 	lookupHopsSig:mean 	22.4
scalar Network.dyn_peer[283] 	lookupTimeSig:mean 	1.825
scalar Network.dyn_peer[283] 	lookupStabilitySig:mean 	0.56498157046735
scalar Network.dyn_peer[283] 	lookupHopsSig:mean 	17.5
scalar Network.dyn_peer[284] 	lookupTimeSig:mean 	1.375
scalar Network.dyn_peer[284] 	lookupStabilitySig:mean 	0.57365742139518
scalar Network.dyn_peer[284] 	lookupHopsSig:mean 	13
scalar Network.dyn_peer[285] 	lookupTimeSig:mean 	1.66
scalar Network.dyn_peer[285] 	lookupStabilitySig:mean 	0.90562498029321
scalar Network.dyn_peer[285] 	lookupHopsSig:mean 	15.7
scalar Network.dyn_peer[286] 	lookupTimeSig:mean 	4.0666666666667
scalar Network.dyn_peer[286] 	lookupStabilitySig:mean 	0.87958798309167
scalar Network.dyn_peer[286] 	lookupHopsSig:mean 	40
scalar Network.dyn_peer[287] 	lookupTimeSig:mean 	2.15
scalar Network.dyn_peer[287] 	lookupStabilitySig:mean 	0.79844256234355
scalar Network.dyn_peer[287] 	lookupHopsSig:mean 	20.75
scalar Network.dyn_peer[288] 	lookupTimeSig:mean 	0.825
scalar Network.dyn_peer[288] 	lookupStabilitySig:mean 	0.43216158822179
scalar Network.dyn_peer[288] 	lookupHopsSig:mean 	7.5
scalar Network.dyn_peer[289] 	lookupTimeSig:mean 	1.11
scalar Network.dyn_peer[289] 	lookupStabilitySig:mean 	0.86506744595245
scalar Network.dyn_peer[289] 	lookupHopsSig:mean 	10.2
scalar Network.dyn_peer[290] 	lookupTimeSig:mean 	1.47
scalar Network.dyn_peer[290] 	lookupStabilitySig:mean 	0.83855699482374
scalar Network.dyn_peer[290] 	lookupHopsSig:mean 	13.8
scalar Network.dyn_peer[291] 	lookupTimeSig:mean 	2.55
scalar Network.dyn_peer[291] 	lookupStabilitySig:mean 	0.63801027089357
scalar Network.dyn_peer[291] 	lookupHopsSig:mean 	25
scalar Network.dyn_peer[292] 	lookupTimeSig:mean 	3.8
scalar Network.dyn_peer[292] 	lookupStabilitySig:mean 	0.77583892643452
scalar Network.dyn_peer[292] 	lookupHopsSig:mean 	37.5
scalar Network.dyn_peer[293] 	lookupTimeSig:mean 	1.9428571428571
scalar Network.dyn_peer[293] 	lookupStabilitySig:mean 	0.91870227994929
scalar Network.dyn_peer[293] 	lookupHopsSig:mean 	18.571428571429
scalar Network.dyn_peer[294] 	lookupTimeSig:mean 	1.14
scalar Network.dyn_peer[294] 	lookupStabilitySig:mean 	0.61815324127674
scalar Network.dyn_peer[294] 	lookupHopsSig:mean 	10.6
scalar Network.dyn_peer[295] 	lookupTimeSig:mean 	1.4833333333333
scalar Network.dyn_peer[295] 	lookupStabilitySig:mean 	0.65066495786111
scalar Network.dyn_peer[295] 	lookupHopsSig:mean 	14
scalar Network.dyn_peer[296] 	lookupTimeSig:mean 	2.3
scalar Network.dyn_peer[296] 	lookupStabilitySig:mean 	0.56806006864645
scalar Network.dyn_peer[296] 	lookupHopsSig:mean 	22.25
scalar Network.dyn_peer[297] 	lookupTimeSig:mean 	2
scalar Network.dyn_peer[297] 	lookupStabilitySig:mean 	0.81597810611129
scalar Network.dyn_peer[297] 	lookupHopsSig:mean 	19.166666666667
scalar Network.dyn_peer[298] 	lookupTimeSig:mean 	1.48
scalar Network.dyn_peer[298] 	lookupStabilitySig:mean 	0.8547316076234
scalar Network.dyn_peer[298] 	lookupHopsSig:mean 	14
scalar Network.dyn_peer[299] 	lookupTimeSig:mean 	1.52
scalar Network.dyn_peer[299] 	lookupStabilitySig:mean 	0.61614832282066
scalar Network.dyn_peer[299] 	lookupHopsSig:mean 	14.4
scalar Network.dyn_peer[300] 	lookupTimeSig:mean 	1.4833333333333
scalar Network.dyn_peer[300] 	lookupStabilitySig:mean 	0.64675254250566
scalar Network.dyn_peer[300] 	lookupHopsSig:mean 	14
scalar Network.dyn_peer[301] 	lookupTimeSig:mean 	1.8625
scalar Network.dyn_peer[301] 	lookupStabilitySig:mean 	0.78869551973185
scalar Network.dyn_peer[301] 	lookupHopsSig:mean 	17.75
scalar Network.dyn_peer[302] 	lookupTimeSig:mean 	1.175
scalar Network.dyn_peer[302] 	lookupStabilitySig:mean 	0.52116082562134
scalar Network.dyn_peer[302] 	lookupHopsSig:mean 	11
scalar Network.dyn_peer[303] 	lookupTimeSig:mean 	2.875
scalar Network.dyn_peer[303] 	lookupStabilitySig:mean 	0.81018384918571
scalar Network.dyn_peer[303] 	lookupHopsSig:mean 	28
scalar Network.dyn_peer[304] 	lookupTimeSig:mean 	3.25
scalar Network.dyn_peer[304] 	lookupStabilitySig:mean 	0.44533637911081
scalar Network.dyn_peer[304] 	lookupHopsSig:mean 	32
scalar Network.dyn_peer[305] 	lookupTimeSig:mean 	1.7666666666667
scalar Network.dyn_peer[305] 	lookupStabilitySig:mean 	0.73706819466315
scalar Network.dyn_peer[305] 	lookupHopsSig:mean 	16.833333333333
scalar Network.dyn_peer[306] 	lookupTimeSig:mean 	2.52
scalar Network.dyn_peer[306] 	lookupStabilitySig:mean 	0.6222156425938
scalar Network.dyn_peer[306] 	lookupHopsSig:mean 	24.4
scalar Network.dyn_peer[307] 	lookupTimeSig:mean 	2.8666666666667
scalar Network.dyn_peer[307] 	lookupStabilitySig:mean 	0.85483276223143
scalar Network.dyn_peer[307] 	lookupHopsSig:mean 	28
scalar Network.dyn_peer[308] 	lookupTimeSig:mean 	2.4777777777778
scalar Network.dyn_peer[308] 	lookupStabilitySig:mean 	0.96001797231535
scalar Network.dyn_peer[308] 	lookupHopsSig:mean 	23.888888888889
scalar Network.dyn_peer[309] 	lookupTimeSig:mean 	1.85
scalar Network.dyn_peer[309] 	lookupStabilitySig:mean 	0.89366082353517
scalar Network.dyn_peer[309] 	lookupHopsSig:mean 	17.6
scalar Network.dyn_peer[310] 	lookupTimeSig:mean 	2.74
scalar Network.dyn_peer[310] 	lookupStabilitySig:mean 	0.83292476311326
scalar Network.dyn_peer[310] 	lookupHopsSig:mean 	26.6
scalar Network.dyn_peer[311] 	lookupTimeSig:mean 	3.45
scalar Network.dyn_peer[311] 	lookupStabilitySig:mean 	0.21997299045324
scalar Network.dyn_peer[311] 	lookupHopsSig:mean 	34
scalar Network.dyn_peer[312] 	lookupTimeSig:mean 	1.6555555555556
scalar Network.dyn_peer[312] 	lookupStabilitySig:mean 	0.87541331242149
scalar Network.dyn_peer[312] 	lookupHopsSig:mean 	15.666666666667
scalar Network.dyn_peer[313] 	lookupTimeSig:mean 	2.4833333333333
scalar Network.dyn_peer[313] 	lookupStabilitySig:mean 	0.94283684614735
scalar Network.dyn_peer[313] 	lookupHopsSig:mean 	24
scalar Network.dyn_peer[314] 	lookupTimeSig:mean 	1.25
scalar Network.dyn_peer[314] 	lookupStabilitySig:mean 	0.88309160311474
scalar Network.dyn_peer[314] 	lookupHopsSig:mean 	11.5625
scalar Network.dyn_peer[315] 	lookupTimeSig:mean 	5.75
scalar Network.dyn_peer[315] 	lookupStabilitySig:mean 	0.67194260656834
scalar Network.dyn_peer[315] 	lookupHopsSig:mean 	57
scalar Network.dyn_peer[316] 	lookupTimeSig:mean 	1.6857142857143
scalar Network.dyn_peer[316] 	lookupStabilitySig:mean 	0.92531090682106
scalar Network.dyn_peer[316] 	lookupHopsSig:mean 	16
scalar Network.dyn_peer[317] 	lookupTimeSig:mean 	1.7
scalar Network.dyn_peer[317] 	lookupStabilitySig:mean 	0.65972671527416
scalar Network.dyn_peer[317] 	lookupHopsSig:mean 	16.2
scalar Network.dyn_peer[318] 	lookupTimeSig:mean 	1.25
scalar Network.dyn_peer[318] 	lookupStabilitySig:mean 	0.71125535838655
scalar Network.dyn_peer[318] 	lookupHopsSig:mean 	11.625
scalar Network.dyn_peer[319] 	lookupTimeSig:mean 	1.55
scalar Network.dyn_peer[319] 	lookupStabilitySig:mean 	0.93799326528097
scalar Network.dyn_peer[319] 	lookupHopsSig:mean 	14.583333333333
scalar Network.dyn_peer[320] 	lookupTimeSig:mean 	2.175
scalar Network.dyn_peer[320] 	lookupStabilitySig:mean 	0.74238559044898
scalar Network.dyn_peer[320] 	lookupHopsSig:mean 	21
scalar Network.dyn_peer[321] 	lookupTimeSig:mean 	1.85
scalar Network.dyn_peer[321] 	lookupStabilitySig:mean 	0.69434625205273
scalar Network.dyn_peer[321] 	lookupHopsSig:mean 	17.666666666667
scalar Network.dyn_peer[322] 	lookupTimeSig:mean 	1.4111111111111
scalar Network.dyn_peer[322] 	lookupStabilitySig:mean 	0.79488040330923
scalar Network.dyn_peer[322] 	lookupHopsSig:mean 	13.222222222222
scalar Network.dyn_peer[323] 	lookupTimeSig:mean 	1.68
scalar Network.dyn_peer[323] 	lookupStabilitySig:mean 	0.58231893368065
scalar Network.dyn_peer[323] 	lookupHopsSig:mean 	16
scalar Network.dyn_peer[324] 	lookupTimeSig:mean 	0.725
scalar Network.dyn_peer[324] 	lookupStabilitySig:mean 	0.52020200714469
scalar Network.dyn_peer[324] 	lookupHopsSig:mean 	6.5
scalar Network.dyn_peer[325] 	lookupTimeSig:mean 	2.4777777777778
scalar Network.dyn_peer[325] 	lookupStabilitySig:mean 	0.91009668022808
scalar Network.dyn_peer[325] 	lookupHopsSig:mean 	23.888888888889
scalar Network.dyn_peer[326] 	lookupTimeSig:mean 	2.7
scalar Network.dyn_peer[326] 	lookupStabilitySig:mean 	0.88709743786603
scalar Network.dyn_peer[326] 	lookupHopsSig:mean 	26.333333333333
scalar Network.dyn_peer[327] 	lookupTimeSig:mean 	1.6666666666667
scalar Network.dyn_peer[327] 	lookupStabilitySig:mean 	0.86391856831809
scalar Network.dyn_peer[327] 	lookupHopsSig:mean 	15.833333333333
scalar Network.dyn_peer[328] 	lookupTimeSig:mean 	2.1375
scalar Network.dyn_peer[328] 	lookupStabilitySig:mean 	0.95132115122396
scalar Network.dyn_peer[328] 	lookupHopsSig:mean 	20.5
scalar Network.dyn_peer[329] 	lookupTimeSig:mean 	2.18
scalar Network.dyn_peer[329] 	lookupStabilitySig:mean 	0.67351571321487
scalar Network.dyn_peer[329] 	lookupHopsSig:mean 	21
scalar Network.dyn_peer[330] 	lookupTimeSig:mean 	1.8666666666667
scalar Network.dyn_peer[330] 	lookupStabilitySig:mean 	0.94150963351907
scalar Network.dyn_peer[330] 	lookupHopsSig:mean 	17.777777777778
scalar Network.dyn_peer[331] 	lookupTimeSig:mean 	0.96666666666667
scalar Network.dyn_peer[331] 	lookupStabilitySig:mean 	0.78932666527625
scalar Network.dyn_peer[331] 	lookupHopsSig:mean 	8.7777777777778
scalar Network.dyn_peer[332] 	lookupTimeSig:mean 	1.7166666666667
scalar Network.dyn_peer[332] 	lookupStabilitySig:mean 	0.70584592595696
scalar Network.dyn_peer[332] 	lookupHopsSig:mean 	16.333333333333
scalar Network.dyn_peer[333] 	lookupTimeSig:mean 	1.9333333333333
scalar Network.dyn_peer[333] 	lookupStabilitySig:mean 	0.94109126564581
scalar Network.dyn_peer[333] 	lookupHopsSig:mean 	18.5
scalar Network.dyn_peer[334] 	lookupTimeSig:mean 	1.88
scalar Network.dyn_peer[334] 	lookupStabilitySig:mean 	0.63829410746694
scalar Network.dyn_peer[334] 	lookupHopsSig:mean 	18
scalar Network.dyn_peer[335] 	lookupTimeSig:mean 	2.15
scalar Network.dyn_peer[335] 	lookupStabilitySig:mean 	0.80972214834765
scalar Network.dyn_peer[335] 	lookupHopsSig:mean 	20.75
scalar Network.dyn_peer[336] 	lookupTimeSig:mean 	1.9
scalar Network.dyn_peer[336] 	lookupStabilitySig:mean 	0.92625504953321
scalar Network.dyn_peer[336] 	lookupHopsSig:mean 	18.125
scalar Network.dyn_peer[337] 	lookupTimeSig:mean 	1.8
scalar Network.dyn_peer[337] 	lookupStabilitySig:mean 	0.69412226229906
scalar Network.dyn_peer[337] 	lookupHopsSig:mean 	17.333333333333
scalar Network.dyn_peer[338] 	lookupTimeSig:mean 	2.3
scalar Network.dyn_peer[338] 	lookupStabilitySig:mean 	0.80357260815799
scalar Network.dyn_peer[338] 	lookupHopsSig:mean 	22.25
scalar Network.dyn_peer[339] 	lookupTimeSig:mean 	1.4666666666667
scalar Network.dyn_peer[339] 	lookupStabilitySig:mean 	0.67052851120631
scalar Network.dyn_peer[339] 	lookupHopsSig:mean 	14
scalar Network.dyn_peer[340] 	lookupTimeSig:mean 	1.2857142857143
scalar Network.dyn_peer[340] 	lookupStabilitySig:mean 	0.74619105444955
scalar Network.dyn_peer[340] 	lookupHopsSig:mean 	12
scalar Network.dyn_peer[341] 	lookupTimeSig:mean 	1.9909090909091
scalar Network.dyn_peer[341] 	lookupStabilitySig:mean 	0.9486038282683
scalar Network.dyn_peer[341] 	lookupHopsSig:mean 	19
scalar Network.dyn_peer[342] 	lookupTimeSig:mean 	2.72
scalar Network.dyn_peer[342] 	lookupStabilitySig:mean 	0.77936502993107
scalar Network.dyn_peer[342] 	lookupHopsSig:mean 	26.4
scalar Network.dyn_peer[343] 	lookupTimeSig:mean 	1.8
scalar Network.dyn_peer[343] 	lookupStabilitySig:mean 	0.92517842561938
scalar Network.dyn_peer[343] 	lookupHopsSig:mean 	17.083333333333
scalar Network.dyn_peer[344] 	lookupTimeSig:mean 	2.12
scalar Network.dyn_peer[344] 	lookupStabilitySig:mean 	0.8805972058326
scalar Network.dyn_peer[344] 	lookupHopsSig:mean 	20.4
scalar Network.dyn_peer[345] 	lookupTimeSig:mean 	1.67
scalar Network.dyn_peer[345] 	lookupStabilitySig:mean 	0.85385441286489
scalar Network.dyn_peer[345] 	lookupHopsSig:mean 	15.8
scalar Network.dyn_peer[346] 	lookupTimeSig:mean 	2.45
scalar Network.dyn_peer[346] 	lookupStabilitySig:mean 	0.5094633102417
scalar Network.dyn_peer[346] 	lookupHopsSig:mean 	24
scalar Network.dyn_peer[347] 	lookupTimeSig:mean 	1.9833333333333
scalar Network.dyn_peer[347] 	lookupStabilitySig:mean 	0.72110762322942
scalar Network.dyn_peer[347] 	lookupHopsSig:mean 	19
scalar Network.dyn_peer[348] 	lookupTimeSig:mean 	2.0166666666667
scalar Network.dyn_peer[348] 	lookupStabilitySig:mean 	0.74618157061438
scalar Network.dyn_peer[348] 	lookupHopsSig:mean 	19.333333333333
scalar Network.dyn_peer[349] 	lookupTimeSig:mean 	1.3625
scalar Network.dyn_peer[349] 	lookupStabilitySig:mean 	0.75270641007228
scalar Network.dyn_peer[349] 	lookupHopsSig:mean 	12.75
scalar Network.dyn_peer[350] 	lookupTimeSig:mean 	1.7833333333333
scalar Network.dyn_peer[350] 	lookupStabilitySig:mean 	0.76637289455781
scalar Network.dyn_peer[350] 	lookupHopsSig:mean 	17
scalar Network.dyn_peer[351] 	lookupTimeSig:mean 	2.2
scalar Network.dyn_peer[351] 	lookupStabilitySig:mean 	0.70689669400454
scalar Network.dyn_peer[351] 	lookupHopsSig:mean 	21.2
scalar Network.dyn_peer[352] 	lookupTimeSig:mean 	1.56
scalar Network.dyn_peer[352] 	lookupStabilitySig:mean 	0.90628567705862
scalar Network.dyn_peer[352] 	lookupHopsSig:mean 	14.7
scalar Network.dyn_peer[353] 	lookupTimeSig:mean 	1.52
scalar Network.dyn_peer[353] 	lookupStabilitySig:mean 	0.82599696186371
scalar Network.dyn_peer[353] 	lookupHopsSig:mean 	14.3
scalar Network.dyn_peer[354] 	lookupTimeSig:mean 	1.66
scalar Network.dyn_peer[354] 	lookupStabilitySig:mean 	0.83980212216266
scalar Network.dyn_peer[354] 	lookupHopsSig:mean 	15.7
scalar Network.dyn_peer[355] 	lookupTimeSig:mean 	1.4375
scalar Network.dyn_peer[355] 	lookupStabilitySig:mean 	0.75958674633875
scalar Network.dyn_peer[355] 	lookupHopsSig:mean 	13.5
scalar Network.dyn_peer[356] 	lookupTimeSig:mean 	2.5875
scalar Network.dyn_peer[356] 	lookupStabilitySig:mean 	0.90674375329399
scalar Network.dyn_peer[356] 	lookupHopsSig:mean 	25
scalar Network.dyn_peer[357] 	lookupTimeSig:mean 	2.2857142857143
scalar Network.dyn_peer[357] 	lookupStabilitySig:mean 	0.91000434197485
scalar Network.dyn_peer[357] 	lookupHopsSig:mean 	22
scalar Network.dyn_peer[358] 	lookupTimeSig:mean 	1.625
scalar Network.dyn_peer[358] 	lookupStabilitySig:mean 	0.471655478701
scalar Network.dyn_peer[358] 	lookupHopsSig:mean 	15.5
scalar Network.dyn_peer[359] 	lookupTimeSig:mean 	3.9
scalar Network.dyn_peer[359] 	lookupStabilitySig:mean 	0.65980530530214
scalar Network.dyn_peer[359] 	lookupHopsSig:mean 	38.5
scalar Network.dyn_peer[360] 	lookupTimeSig:mean 	3.55
scalar Network.dyn_peer[360] 	lookupStabilitySig:mean 	0.17293231189251
scalar Network.dyn_peer[360] 	lookupHopsSig:mean 	35
scalar Network.dyn_peer[361] 	lookupTimeSig:mean 	2.3375
scalar Network.dyn_peer[361] 	lookupStabilitySig:mean 	0.95395392726641
scalar Network.dyn_peer[361] 	lookupHopsSig:mean 	22.5
scalar Network.dyn_peer[362] 	lookupTimeSig:mean 	1.2
scalar Network.dyn_peer[362] 	lookupStabilitySig:mean 	0.68538071513176
scalar Network.dyn_peer[362] 	lookupHopsSig:mean 	11.2
scalar Network.dyn_peer[363] 	lookupTimeSig:mean 	1.6571428571429
scalar Network.dyn_peer[363] 	lookupStabilitySig:mean 	0.7423394774752
scalar Network.dyn_peer[363] 	lookupHopsSig:mean 	15.714285714286
scalar Network.dyn_peer[364] 	lookupTimeSig:mean 	2.3285714285714
scalar Network.dyn_peer[364] 	lookupStabilitySig:mean 	0.94817926987473
scalar Network.dyn_peer[364] 	lookupHopsSig:mean 	22.428571428571
scalar Network.dyn_peer[365] 	lookupTimeSig:mean 	1.6333333333333
scalar Network.dyn_peer[365] 	lookupStabilitySig:mean 	0.81937884539366
scalar Network.dyn_peer[365] 	lookupHopsSig:mean 	15.5
scalar Network.dyn_peer[366] 	lookupTimeSig:mean 	1.9692307692308
scalar Network.dyn_peer[366] 	lookupStabilitySig:mean 	0.96655395357476
scalar Network.dyn_peer[366] 	lookupHopsSig:mean 	18.769230769231
scalar Network.dyn_peer[367] 	lookupTimeSig:mean 	1.8
scalar Network.dyn_peer[367] 	lookupStabilitySig:mean 	0.94319813710172
scalar Network.dyn_peer[367] 	lookupHopsSig:mean 	17.083333333333
scalar Network.dyn_peer[368] 	lookupTimeSig:mean 	1.625
scalar Network.dyn_peer[368] 	lookupStabilitySig:mean 	0.59031935594976
scalar Network.dyn_peer[368] 	lookupHopsSig:mean 	15.5
scalar Network.dyn_peer[369] 	lookupTimeSig:mean 	1.6818181818182
scalar Network.dyn_peer[369] 	lookupStabilitySig:mean 	0.8915434144014
scalar Network.dyn_peer[369] 	lookupHopsSig:mean 	15.909090909091
scalar Network.dyn_peer[370] 	lookupTimeSig:mean 	1.7
scalar Network.dyn_peer[370] 	lookupStabilitySig:mean 	0.80543741509318
scalar Network.dyn_peer[370] 	lookupHopsSig:mean 	16.2
scalar Network.dyn_peer[371] 	lookupTimeSig:mean 	3.5
scalar Network.dyn_peer[371] 	lookupStabilitySig:mean 	0.88448741286993
scalar Network.dyn_peer[371] 	lookupHopsSig:mean 	34.25
scalar Network.dyn_peer[372] 	lookupTimeSig:mean 	1.125
scalar Network.dyn_peer[372] 	lookupStabilitySig:mean 	0.7758603306138
scalar Network.dyn_peer[372] 	lookupHopsSig:mean 	10.375
scalar Network.dyn_peer[373] 	lookupTimeSig:mean 	2.3
scalar Network.dyn_peer[373] 	lookupStabilitySig:mean 	0.7255623464783
scalar Network.dyn_peer[373] 	lookupHopsSig:mean 	22.333333333333
scalar Network.dyn_peer[374] 	lookupTimeSig:mean 	1.2428571428571
scalar Network.dyn_peer[374] 	lookupStabilitySig:mean 	0.76271290870916
scalar Network.dyn_peer[374] 	lookupHopsSig:mean 	11.571428571429
scalar Network.dyn_peer[375] 	lookupTimeSig:mean 	1.2818181818182
scalar Network.dyn_peer[375] 	lookupStabilitySig:mean 	0.84794083722359
scalar Network.dyn_peer[375] 	lookupHopsSig:mean 	11.909090909091
scalar Network.dyn_peer[376] 	lookupTimeSig:mean 	2.3857142857143
scalar Network.dyn_peer[376] 	lookupStabilitySig:mean 	0.77948370143505
scalar Network.dyn_peer[376] 	lookupHopsSig:mean 	23
scalar Network.dyn_peer[377] 	lookupTimeSig:mean 	4.95
scalar Network.dyn_peer[377] 	lookupStabilitySig:mean 	0.50126049667597
scalar Network.dyn_peer[377] 	lookupHopsSig:mean 	49
scalar Network.dyn_peer[378] 	lookupTimeSig:mean 	1.5461538461538
scalar Network.dyn_peer[378] 	lookupStabilitySig:mean 	0.90767662911318
scalar Network.dyn_peer[378] 	lookupHopsSig:mean 	14.538461538462
scalar Network.dyn_peer[379] 	lookupTimeSig:mean 	1.9
scalar Network.dyn_peer[379] 	lookupStabilitySig:mean 	0.91220088223261
scalar Network.dyn_peer[379] 	lookupHopsSig:mean 	18.142857142857
scalar Network.dyn_peer[380] 	lookupTimeSig:mean 	3.3
scalar Network.dyn_peer[380] 	lookupStabilitySig:mean 	0.661132119596
scalar Network.dyn_peer[380] 	lookupHopsSig:mean 	32.5
scalar Network.dyn_peer[381] 	lookupTimeSig:mean 	2.8333333333333
scalar Network.dyn_peer[381] 	lookupStabilitySig:mean 	0.86057933559641
scalar Network.dyn_peer[381] 	lookupHopsSig:mean 	27.5
scalar Network.dyn_peer[382] 	lookupTimeSig:mean 	2.3
scalar Network.dyn_peer[382] 	lookupStabilitySig:mean 	0.86198537983
scalar Network.dyn_peer[382] 	lookupHopsSig:mean 	22.25
scalar Network.dyn_peer[383] 	lookupTimeSig:mean 	1.9
scalar Network.dyn_peer[383] 	lookupStabilitySig:mean 	0.88034569897822
scalar Network.dyn_peer[383] 	lookupHopsSig:mean 	18.142857142857
scalar Network.dyn_peer[384] 	lookupTimeSig:mean 	1.55
scalar Network.dyn_peer[384] 	lookupStabilitySig:mean 	0.78493052953854
scalar Network.dyn_peer[384] 	lookupHopsSig:mean 	14.625
scalar Network.dyn_peer[385] 	lookupTimeSig:mean 	2.35
scalar Network.dyn_peer[385] 	lookupStabilitySig:mean 	0.47936210036278
scalar Network.dyn_peer[385] 	lookupHopsSig:mean 	23
scalar Network.dyn_peer[386] 	lookupTimeSig:mean 	1.76
scalar Network.dyn_peer[386] 	lookupStabilitySig:mean 	0.66314741224051
scalar Network.dyn_peer[386] 	lookupHopsSig:mean 	16.8
scalar Network.dyn_peer[387] 	lookupTimeSig:mean 	2.1
scalar Network.dyn_peer[387] 	lookupStabilitySig:mean 	0.93904218905502
scalar Network.dyn_peer[387] 	lookupHopsSig:mean 	20.111111111111
scalar Network.dyn_peer[388] 	lookupTimeSig:mean 	1.9666666666667
scalar Network.dyn_peer[388] 	lookupStabilitySig:mean 	0.95502912713629
scalar Network.dyn_peer[388] 	lookupHopsSig:mean 	18.777777777778
scalar Network.dyn_peer[389] 	lookupTimeSig:mean 	1.3142857142857
scalar Network.dyn_peer[389] 	lookupStabilitySig:mean 	0.70881529338658
scalar Network.dyn_peer[389] 	lookupHopsSig:mean 	12.285714285714
scalar Network.dyn_peer[390] 	lookupTimeSig:mean 	1.4666666666667
scalar Network.dyn_peer[390] 	lookupStabilitySig:mean 	0.40828466415405
scalar Network.dyn_peer[390] 	lookupHopsSig:mean 	14
scalar Network.dyn_peer[391] 	lookupTimeSig:mean 	1.6
scalar Network.dyn_peer[391] 	lookupStabilitySig:mean 	0.61207912117243
scalar Network.dyn_peer[391] 	lookupHopsSig:mean 	15.25
scalar Network.dyn_peer[392] 	lookupTimeSig:mean 	2.6428571428571
scalar Network.dyn_peer[392] 	lookupStabilitySig:mean 	0.92029544591372
scalar Network.dyn_peer[392] 	lookupHopsSig:mean 	25.571428571429
scalar Network.dyn_peer[393] 	lookupTimeSig:mean 	2.2428571428571
scalar Network.dyn_peer[393] 	lookupStabilitySig:mean 	0.87801999798311
scalar Network.dyn_peer[393] 	lookupHopsSig:mean 	21.571428571429
scalar Network.dyn_peer[394] 	lookupTimeSig:mean 	1.0875
scalar Network.dyn_peer[394] 	lookupStabilitySig:mean 	0.76363122323528
scalar Network.dyn_peer[394] 	lookupHopsSig:mean 	10
scalar Network.dyn_peer[395] 	lookupTimeSig:mean 	3.2333333333333
scalar Network.dyn_peer[395] 	lookupStabilitySig:mean 	0.86365210963413
scalar Network.dyn_peer[395] 	lookupHopsSig:mean 	31.5
scalar Network.dyn_peer[396] 	lookupTimeSig:mean 	3.1125
scalar Network.dyn_peer[396] 	lookupStabilitySig:mean 	0.94910786603577
scalar Network.dyn_peer[396] 	lookupHopsSig:mean 	30.25
scalar Network.dyn_peer[397] 	lookupTimeSig:mean 	1.52
scalar Network.dyn_peer[397] 	lookupStabilitySig:mean 	0.69504974633455
scalar Network.dyn_peer[397] 	lookupHopsSig:mean 	14.4
scalar Network.dyn_peer[398] 	lookupTimeSig:mean 	2.74
scalar Network.dyn_peer[398] 	lookupStabilitySig:mean 	0.91224859561771
scalar Network.dyn_peer[398] 	lookupHopsSig:mean 	26.6
scalar Network.dyn_peer[399] 	lookupTimeSig:mean 	1.82
scalar Network.dyn_peer[399] 	lookupStabilitySig:mean 	0.96403477038257
scalar Network.dyn_peer[399] 	lookupHopsSig:mean 	17.3
scalar Network.dyn_peer[400] 	lookupTimeSig:mean 	1
scalar Network.dyn_peer[400] 	lookupStabilitySig:mean 	0.53768872097135
scalar Network.dyn_peer[400] 	lookupHopsSig:mean 	9.25
scalar Network.dyn_peer[401] 	lookupTimeSig:mean 	1.86
scalar Network.dyn_peer[401] 	lookupStabilitySig:mean 	0.78985396334901
scalar Network.dyn_peer[401] 	lookupHopsSig:mean 	17.8
scalar Network.dyn_peer[402] 	lookupTimeSig:mean 	1.6333333333333
scalar Network.dyn_peer[402] 	lookupStabilitySig:mean 	0.88806580845267
scalar Network.dyn_peer[402] 	lookupHopsSig:mean 	15.416666666667
scalar Network.dyn_peer[403] 	lookupTimeSig:mean 	1.3
scalar Network.dyn_peer[403] 	lookupStabilitySig:mean 	0.44932843744755
scalar Network.dyn_peer[403] 	lookupHopsSig:mean 	12.333333333333
scalar Network.dyn_peer[404] 	lookupTimeSig:mean 	2.7
scalar Network.dyn_peer[404] 	lookupStabilitySig:mean 	0.87935434778531
scalar Network.dyn_peer[404] 	lookupHopsSig:mean 	26.333333333333
scalar Network.dyn_peer[405] 	lookupTimeSig:mean 	1.7666666666667
scalar Network.dyn_peer[405] 	lookupStabilitySig:mean 	0.43361877153317
scalar Network.dyn_peer[405] 	lookupHopsSig:mean 	17
scalar Network.dyn_peer[406] 	lookupTimeSig:mean 	2.5125
scalar Network.dyn_peer[406] 	lookupStabilitySig:mean 	0.89944485505112
scalar Network.dyn_peer[406] 	lookupHopsSig:mean 	24.25
scalar Network.dyn_peer[407] 	lookupTimeSig:mean 	1.675
scalar Network.dyn_peer[407] 	lookupStabilitySig:mean 	0.55134920217097
scalar Network.dyn_peer[407] 	lookupHopsSig:mean 	16
scalar Network.dyn_peer[408] 	lookupTimeSig:mean 	1.54
scalar Network.dyn_peer[408] 	lookupStabilitySig:mean 	0.7589816370979
scalar Network.dyn_peer[408] 	lookupHopsSig:mean 	14.6
scalar Network.dyn_peer[409] 	lookupTimeSig:mean 	1.4857142857143
scalar Network.dyn_peer[409] 	lookupStabilitySig:mean 	0.93294771444718
scalar Network.dyn_peer[409] 	lookupHopsSig:mean 	14
scalar Network.dyn_peer[410] 	lookupTimeSig:mean 	2.8666666666667
scalar Network.dyn_peer[410] 	lookupStabilitySig:mean 	0.48393733551105
scalar Network.dyn_peer[410] 	lookupHopsSig:mean 	28
scalar Network.dyn_peer[411] 	lookupTimeSig:mean 	1.5777777777778
scalar Network.dyn_peer[411] 	lookupStabilitySig:mean 	0.80487577172203
scalar Network.dyn_peer[411] 	lookupHopsSig:mean 	14.888888888889
scalar Network.dyn_peer[412] 	lookupTimeSig:mean 	2.35
scalar Network.dyn_peer[412] 	lookupStabilitySig:mean 	0.36422220617533
scalar Network.dyn_peer[412] 	lookupHopsSig:mean 	23
scalar Network.dyn_peer[413] 	lookupTimeSig:mean 	2.5
scalar Network.dyn_peer[413] 	lookupStabilitySig:mean 	0.76025090118249
scalar Network.dyn_peer[413] 	lookupHopsSig:mean 	24.333333333333
scalar Network.dyn_peer[414] 	lookupTimeSig:mean 	2.925
scalar Network.dyn_peer[414] 	lookupStabilitySig:mean 	0.88030250556767
scalar Network.dyn_peer[414] 	lookupHopsSig:mean 	28.5
scalar Network.dyn_peer[415] 	lookupTimeSig:mean 	1.65
scalar Network.dyn_peer[415] 	lookupStabilitySig:mean 	0.94912502666314
scalar Network.dyn_peer[415] 	lookupHopsSig:mean 	15.583333333333
scalar Network.dyn_peer[416] 	lookupTimeSig:mean 	2.0428571428571
scalar Network.dyn_peer[416] 	lookupStabilitySig:mean 	0.7557538662638
scalar Network.dyn_peer[416] 	lookupHopsSig:mean 	19.571428571429
scalar Network.dyn_peer[417] 	lookupTimeSig:mean 	1.7333333333333
scalar Network.dyn_peer[417] 	lookupStabilitySig:mean 	0.53055607527494
scalar Network.dyn_peer[417] 	lookupHopsSig:mean 	16.666666666667
scalar Network.dyn_peer[418] 	lookupTimeSig:mean 	1.84
scalar Network.dyn_peer[418] 	lookupStabilitySig:mean 	0.87144719697535
scalar Network.dyn_peer[418] 	lookupHopsSig:mean 	17.5
scalar Network.dyn_peer[419] 	lookupTimeSig:mean 	1.1583333333333
scalar Network.dyn_peer[419] 	lookupStabilitySig:mean 	0.83503120741807
scalar Network.dyn_peer[419] 	lookupHopsSig:mean 	10.666666666667
scalar Network.dyn_peer[420] 	lookupTimeSig:mean 	2.1333333333333
scalar Network.dyn_peer[420] 	lookupStabilitySig:mean 	0.84190164754788
scalar Network.dyn_peer[420] 	lookupHopsSig:mean 	20.666666666667
scalar Network.dyn_peer[421] 	lookupTimeSig:mean 	1.5
[...]
scalar Network.dyn_peer[896] 	lookupTimeSig:mean 	1.4142857142857
scalar Network.dyn_peer[896] 	lookupStabilitySig:mean 	0.84871245894049
scalar Network.dyn_peer[896] 	lookupHopsSig:mean 	13.285714285714
scalar Network.dyn_peer[897] 	lookupTimeSig:mean 	2.6833333333333
scalar Network.dyn_peer[897] 	lookupStabilitySig:mean 	0.79904668979968
scalar Network.dyn_peer[897] 	lookupHopsSig:mean 	26
scalar Network.dyn_peer[898] 	lookupTimeSig:mean 	3.54
scalar Network.dyn_peer[898] 	lookupStabilitySig:mean 	0.94256780594587
scalar Network.dyn_peer[898] 	lookupHopsSig:mean 	34.6
scalar Network.dyn_peer[899] 	lookupTimeSig:mean 	2.5428571428571
scalar Network.dyn_peer[899] 	lookupStabilitySig:mean 	0.79827694155808
scalar Network.dyn_peer[899] 	lookupHopsSig:mean 	24.571428571429
scalar Network.dyn_peer[900] 	lookupTimeSig:mean 	1.7714285714286
scalar Network.dyn_peer[900] 	lookupStabilitySig:mean 	0.85446991904506
scalar Network.dyn_peer[900] 	lookupHopsSig:mean 	16.857142857143
scalar Network.dyn_peer[901] 	lookupTimeSig:mean 	1.98
scalar Network.dyn_peer[901] 	lookupStabilitySig:mean 	0.77193346098065
scalar Network.dyn_peer[901] 	lookupHopsSig:mean 	19
scalar Network.dyn_peer[902] 	lookupTimeSig:mean 	1.7888888888889
scalar Network.dyn_peer[902] 	lookupStabilitySig:mean 	0.89242238872167
scalar Network.dyn_peer[902] 	lookupHopsSig:mean 	17
scalar Network.dyn_peer[903] 	lookupTimeSig:mean 	4.3333333333333
scalar Network.dyn_peer[903] 	lookupStabilitySig:mean 	0.89501918169359
scalar Network.dyn_peer[903] 	lookupHopsSig:mean 	42.666666666667
scalar Network.dyn_peer[904] 	lookupTimeSig:mean 	2.15
scalar Network.dyn_peer[904] 	lookupStabilitySig:mean 	0.90056519722566
scalar Network.dyn_peer[904] 	lookupHopsSig:mean 	20.666666666667
scalar Network.dyn_peer[905] 	lookupTimeSig:mean 	1.3
scalar Network.dyn_peer[905] 	lookupStabilitySig:mean 	0.8833010494709
scalar Network.dyn_peer[905] 	lookupHopsSig:mean 	12.166666666667
scalar Network.dyn_peer[906] 	lookupTimeSig:mean 	1.3714285714286
scalar Network.dyn_peer[906] 	lookupStabilitySig:mean 	0.85148878608431
scalar Network.dyn_peer[906] 	lookupHopsSig:mean 	12.857142857143
scalar Network.dyn_peer[907] 	lookupTimeSig:mean 	1.6083333333333
scalar Network.dyn_peer[907] 	lookupStabilitySig:mean 	0.93649257828171
scalar Network.dyn_peer[907] 	lookupHopsSig:mean 	15.166666666667
scalar Network.dyn_peer[908] 	lookupTimeSig:mean 	2.2888888888889
scalar Network.dyn_peer[908] 	lookupStabilitySig:mean 	0.95478171679295
scalar Network.dyn_peer[908] 	lookupHopsSig:mean 	22
scalar Network.dyn_peer[909] 	lookupTimeSig:mean 	1
scalar Network.dyn_peer[909] 	lookupStabilitySig:mean 	0.75457630380988
scalar Network.dyn_peer[909] 	lookupHopsSig:mean 	9.2
scalar Network.dyn_peer[910] 	lookupTimeSig:mean 	1.2833333333333
scalar Network.dyn_peer[910] 	lookupStabilitySig:mean 	0.80073316534981
scalar Network.dyn_peer[910] 	lookupHopsSig:mean 	12
scalar Network.dyn_peer[911] 	lookupTimeSig:mean 	1.625
scalar Network.dyn_peer[911] 	lookupStabilitySig:mean 	0.72170688956976
scalar Network.dyn_peer[911] 	lookupHopsSig:mean 	15.5
scalar Network.dyn_peer[912] 	lookupTimeSig:mean 	2.2333333333333
scalar Network.dyn_peer[912] 	lookupStabilitySig:mean 	0.59039389590422
scalar Network.dyn_peer[912] 	lookupHopsSig:mean 	21.666666666667
scalar Network.dyn_peer[913] 	lookupTimeSig:mean 	1.9333333333333
scalar Network.dyn_peer[913] 	lookupStabilitySig:mean 	0.92208977881819
scalar Network.dyn_peer[913] 	lookupHopsSig:mean 	18.5
scalar Network.dyn_peer[914] 	lookupTimeSig:mean 	2.05
scalar Network.dyn_peer[914] 	lookupStabilitySig:mean 	0.78501122212037
scalar Network.dyn_peer[914] 	lookupHopsSig:mean 	19.75
scalar Network.dyn_peer[915] 	lookupTimeSig:mean 	2.0666666666667
scalar Network.dyn_peer[915] 	lookupStabilitySig:mean 	0.9179718256928
scalar Network.dyn_peer[915] 	lookupHopsSig:mean 	19.833333333333
scalar Network.dyn_peer[916] 	lookupTimeSig:mean 	0.8
scalar Network.dyn_peer[916] 	lookupStabilitySig:mean 	0.7418990701437
scalar Network.dyn_peer[916] 	lookupHopsSig:mean 	7.2
scalar Network.dyn_peer[917] 	lookupTimeSig:mean 	2.6833333333333
scalar Network.dyn_peer[917] 	lookupStabilitySig:mean 	0.92468599199007
scalar Network.dyn_peer[917] 	lookupHopsSig:mean 	26
scalar Network.dyn_peer[918] 	lookupTimeSig:mean 	1.2142857142857
scalar Network.dyn_peer[918] 	lookupStabilitySig:mean 	0.88977300748229
scalar Network.dyn_peer[918] 	lookupHopsSig:mean 	11.285714285714
scalar Network.dyn_peer[919] 	lookupTimeSig:mean 	1.9
scalar Network.dyn_peer[919] 	lookupStabilitySig:mean 	0.79955220160385
scalar Network.dyn_peer[919] 	lookupHopsSig:mean 	18.166666666667
scalar Network.dyn_peer[920] 	lookupTimeSig:mean 	2.4
scalar Network.dyn_peer[920] 	lookupStabilitySig:mean 	0.75250869244337
scalar Network.dyn_peer[920] 	lookupHopsSig:mean 	23.2
scalar Network.dyn_peer[921] 	lookupTimeSig:mean 	2.05
scalar Network.dyn_peer[921] 	lookupStabilitySig:mean 	0.72895173914731
scalar Network.dyn_peer[921] 	lookupHopsSig:mean 	19.75
scalar Network.dyn_peer[922] 	lookupTimeSig:mean 	1.8375
scalar Network.dyn_peer[922] 	lookupStabilitySig:mean 	0.84995323000476
scalar Network.dyn_peer[922] 	lookupHopsSig:mean 	17.5
scalar Network.dyn_peer[923] 	lookupTimeSig:mean 	2.7857142857143
scalar Network.dyn_peer[923] 	lookupStabilitySig:mean 	0.95046829219375
scalar Network.dyn_peer[923] 	lookupHopsSig:mean 	27
scalar Network.dyn_peer[924] 	lookupTimeSig:mean 	1.675
scalar Network.dyn_peer[924] 	lookupStabilitySig:mean 	0.73418181110173
scalar Network.dyn_peer[924] 	lookupHopsSig:mean 	16
scalar Network.dyn_peer[925] 	lookupTimeSig:mean 	1.7714285714286
scalar Network.dyn_peer[925] 	lookupStabilitySig:mean 	0.92087137146986
scalar Network.dyn_peer[925] 	lookupHopsSig:mean 	16.857142857143
scalar Network.dyn_peer[926] 	lookupTimeSig:mean 	1.0875
scalar Network.dyn_peer[926] 	lookupStabilitySig:mean 	0.9226882532239
scalar Network.dyn_peer[926] 	lookupHopsSig:mean 	10
scalar Network.dyn_peer[927] 	lookupTimeSig:mean 	1.7307692307692
scalar Network.dyn_peer[927] 	lookupStabilitySig:mean 	0.95544666521108
scalar Network.dyn_peer[927] 	lookupHopsSig:mean 	16.384615384615
scalar Network.dyn_peer[928] 	lookupTimeSig:mean 	1.7
scalar Network.dyn_peer[928] 	lookupStabilitySig:mean 	0.94534183340147
scalar Network.dyn_peer[928] 	lookupHopsSig:mean 	16.083333333333
scalar Network.dyn_peer[929] 	lookupTimeSig:mean 	1.8142857142857
scalar Network.dyn_peer[929] 	lookupStabilitySig:mean 	0.89668728743813
scalar Network.dyn_peer[929] 	lookupHopsSig:mean 	17.214285714286
scalar Network.dyn_peer[930] 	lookupTimeSig:mean 	1.8058823529412
scalar Network.dyn_peer[930] 	lookupStabilitySig:mean 	0.96149503264357
scalar Network.dyn_peer[930] 	lookupHopsSig:mean 	17.117647058824
scalar Network.dyn_peer[931] 	lookupTimeSig:mean 	1.9428571428571
scalar Network.dyn_peer[931] 	lookupStabilitySig:mean 	0.93371679208108
scalar Network.dyn_peer[931] 	lookupHopsSig:mean 	18.571428571429
scalar Network.dyn_peer[932] 	lookupTimeSig:mean 	1.5571428571429
scalar Network.dyn_peer[932] 	lookupStabilitySig:mean 	0.92104469093361
scalar Network.dyn_peer[932] 	lookupHopsSig:mean 	14.714285714286
scalar Network.dyn_peer[933] 	lookupTimeSig:mean 	2.3333333333333
scalar Network.dyn_peer[933] 	lookupStabilitySig:mean 	0.58350786566734
scalar Network.dyn_peer[933] 	lookupHopsSig:mean 	22.666666666667
scalar Network.dyn_peer[934] 	lookupTimeSig:mean 	1.575
scalar Network.dyn_peer[934] 	lookupStabilitySig:mean 	0.71850884240121
scalar Network.dyn_peer[934] 	lookupHopsSig:mean 	15
scalar Network.dyn_peer[935] 	lookupTimeSig:mean 	2.88
scalar Network.dyn_peer[935] 	lookupStabilitySig:mean 	0.94013572335243
scalar Network.dyn_peer[935] 	lookupHopsSig:mean 	28
scalar Network.dyn_peer[936] 	lookupTimeSig:mean 	1.6
scalar Network.dyn_peer[936] 	lookupStabilitySig:mean 	0.64922677477201
scalar Network.dyn_peer[936] 	lookupHopsSig:mean 	15.333333333333
scalar Network.dyn_peer[937] 	lookupTimeSig:mean 	1.4166666666667
scalar Network.dyn_peer[937] 	lookupStabilitySig:mean 	0.82545391656458
scalar Network.dyn_peer[937] 	lookupHopsSig:mean 	13.333333333333
scalar Network.dyn_peer[938] 	lookupTimeSig:mean 	1.6428571428571
scalar Network.dyn_peer[938] 	lookupStabilitySig:mean 	0.95138928653406
scalar Network.dyn_peer[938] 	lookupHopsSig:mean 	15.571428571429
scalar Network.dyn_peer[939] 	lookupTimeSig:mean 	1.6
scalar Network.dyn_peer[939] 	lookupStabilitySig:mean 	0.81871341988444
scalar Network.dyn_peer[939] 	lookupHopsSig:mean 	15.2
scalar Network.dyn_peer[940] 	lookupTimeSig:mean 	1.98
scalar Network.dyn_peer[940] 	lookupStabilitySig:mean 	0.9219346575439
scalar Network.dyn_peer[940] 	lookupHopsSig:mean 	19
scalar Network.dyn_peer[941] 	lookupTimeSig:mean 	1.0444444444444
scalar Network.dyn_peer[941] 	lookupStabilitySig:mean 	0.85844278563228
scalar Network.dyn_peer[941] 	lookupHopsSig:mean 	9.5555555555556
scalar Network.dyn_peer[942] 	lookupTimeSig:mean 	1.6
scalar Network.dyn_peer[942] 	lookupStabilitySig:mean 	0.69192558247596
scalar Network.dyn_peer[942] 	lookupHopsSig:mean 	15.25
scalar Network.dyn_peer[943] 	lookupTimeSig:mean 	2.2222222222222
scalar Network.dyn_peer[943] 	lookupStabilitySig:mean 	0.95977583832832
scalar Network.dyn_peer[943] 	lookupHopsSig:mean 	21.333333333333
scalar Network.dyn_peer[944] 	lookupTimeSig:mean 	1.45
scalar Network.dyn_peer[944] 	lookupStabilitySig:mean 	0.77903113390009
scalar Network.dyn_peer[944] 	lookupHopsSig:mean 	13.666666666667
scalar Network.dyn_peer[945] 	lookupTimeSig:mean 	1.8375
scalar Network.dyn_peer[945] 	lookupStabilitySig:mean 	0.84615953022148
scalar Network.dyn_peer[945] 	lookupHopsSig:mean 	17.5
scalar Network.dyn_peer[946] 	lookupTimeSig:mean 	1.6666666666667
scalar Network.dyn_peer[946] 	lookupStabilitySig:mean 	0.63616493344307
scalar Network.dyn_peer[946] 	lookupHopsSig:mean 	16
scalar Network.dyn_peer[947] 	lookupTimeSig:mean 	1.6666666666667
scalar Network.dyn_peer[947] 	lookupStabilitySig:mean 	0.69421804696321
scalar Network.dyn_peer[947] 	lookupHopsSig:mean 	16
scalar Network.dyn_peer[948] 	lookupTimeSig:mean 	1.73
scalar Network.dyn_peer[948] 	lookupStabilitySig:mean 	0.94359888266772
scalar Network.dyn_peer[948] 	lookupHopsSig:mean 	16.4
scalar Network.dyn_peer[949] 	lookupTimeSig:mean 	2
scalar Network.dyn_peer[949] 	lookupStabilitySig:mean 	0.59979101022085
scalar Network.dyn_peer[949] 	lookupHopsSig:mean 	19.333333333333
scalar Network.dyn_peer[950] 	lookupTimeSig:mean 	1.3666666666667
scalar Network.dyn_peer[950] 	lookupStabilitySig:mean 	0.62741047143936
scalar Network.dyn_peer[950] 	lookupHopsSig:mean 	13
scalar Network.dyn_peer[951] 	lookupTimeSig:mean 	1.9111111111111
scalar Network.dyn_peer[951] 	lookupStabilitySig:mean 	0.88353525474668
scalar Network.dyn_peer[951] 	lookupHopsSig:mean 	18.222222222222
scalar Network.dyn_peer[952] 	lookupTimeSig:mean 	2.9
scalar Network.dyn_peer[952] 	lookupStabilitySig:mean 	0.96016877877992
scalar Network.dyn_peer[952] 	lookupHopsSig:mean 	28.125
scalar Network.dyn_peer[953] 	lookupTimeSig:mean 	1.9
scalar Network.dyn_peer[953] 	lookupStabilitySig:mean 	0.71504065891107
scalar Network.dyn_peer[953] 	lookupHopsSig:mean 	18.333333333333
scalar Network.dyn_peer[954] 	lookupTimeSig:mean 	2.65
scalar Network.dyn_peer[954] 	lookupStabilitySig:mean 	0.61684782803059
scalar Network.dyn_peer[954] 	lookupHopsSig:mean 	26
scalar Network.dyn_peer[955] 	lookupTimeSig:mean 	2.1142857142857
scalar Network.dyn_peer[955] 	lookupStabilitySig:mean 	0.94575989399371
scalar Network.dyn_peer[955] 	lookupHopsSig:mean 	20.285714285714
scalar Network.dyn_peer[956] 	lookupTimeSig:mean 	0.9875
scalar Network.dyn_peer[956] 	lookupStabilitySig:mean 	0.83332766895182
scalar Network.dyn_peer[956] 	lookupHopsSig:mean 	9
scalar Network.dyn_peer[957] 	lookupTimeSig:mean 	1.9615384615385
scalar Network.dyn_peer[957] 	lookupStabilitySig:mean 	0.9635303486855
scalar Network.dyn_peer[957] 	lookupHopsSig:mean 	18.692307692308
scalar Network.dyn_peer[958] 	lookupTimeSig:mean 	4.7
scalar Network.dyn_peer[958] 	lookupStabilitySig:mean 	0.92301717431595
scalar Network.dyn_peer[958] 	lookupHopsSig:mean 	46.333333333333
scalar Network.dyn_peer[959] 	lookupTimeSig:mean 	1.625
scalar Network.dyn_peer[959] 	lookupStabilitySig:mean 	0.84539865970146
scalar Network.dyn_peer[959] 	lookupHopsSig:mean 	15.375
scalar Network.dyn_peer[960] 	lookupTimeSig:mean 	2.2
scalar Network.dyn_peer[960] 	lookupStabilitySig:mean 	0.90857502546472
scalar Network.dyn_peer[960] 	lookupHopsSig:mean 	21.166666666667
scalar Network.dyn_peer[961] 	lookupTimeSig:mean 	2.2625
scalar Network.dyn_peer[961] 	lookupStabilitySig:mean 	0.94966533675324
scalar Network.dyn_peer[961] 	lookupHopsSig:mean 	21.75
scalar Network.dyn_peer[962] 	lookupTimeSig:mean 	1.725
scalar Network.dyn_peer[962] 	lookupStabilitySig:mean 	0.82939162757248
scalar Network.dyn_peer[962] 	lookupHopsSig:mean 	16.5
scalar Network.dyn_peer[963] 	lookupTimeSig:mean 	1.7444444444444
scalar Network.dyn_peer[963] 	lookupStabilitySig:mean 	0.95547851588991
scalar Network.dyn_peer[963] 	lookupHopsSig:mean 	16.555555555556
scalar Network.dyn_peer[964] 	lookupTimeSig:mean 	2.375
scalar Network.dyn_peer[964] 	lookupStabilitySig:mean 	0.94734858948505
scalar Network.dyn_peer[964] 	lookupHopsSig:mean 	22.875
scalar Network.dyn_peer[965] 	lookupTimeSig:mean 	1.15
scalar Network.dyn_peer[965] 	lookupStabilitySig:mean 	0.84031853766646
scalar Network.dyn_peer[965] 	lookupHopsSig:mean 	10.625
scalar Network.dyn_peer[966] 	lookupTimeSig:mean 	2.9333333333333
scalar Network.dyn_peer[966] 	lookupStabilitySig:mean 	0.76842649032672
scalar Network.dyn_peer[966] 	lookupHopsSig:mean 	28.666666666667
scalar Network.dyn_peer[967] 	lookupTimeSig:mean 	2.47
scalar Network.dyn_peer[967] 	lookupStabilitySig:mean 	0.9642695193179
scalar Network.dyn_peer[967] 	lookupHopsSig:mean 	23.8
scalar Network.dyn_peer[968] 	lookupTimeSig:mean 	1.6166666666667
scalar Network.dyn_peer[968] 	lookupStabilitySig:mean 	0.80912032133589
scalar Network.dyn_peer[968] 	lookupHopsSig:mean 	15.333333333333
scalar Network.dyn_peer[969] 	lookupTimeSig:mean 	1.9666666666667
scalar Network.dyn_peer[969] 	lookupStabilitySig:mean 	0.84189355187118
scalar Network.dyn_peer[969] 	lookupHopsSig:mean 	18.833333333333
scalar Network.dyn_peer[970] 	lookupTimeSig:mean 	2.74
scalar Network.dyn_peer[970] 	lookupStabilitySig:mean 	0.938616675511
scalar Network.dyn_peer[970] 	lookupHopsSig:mean 	26.6
scalar Network.dyn_peer[971] 	lookupTimeSig:mean 	0.46666666666667
scalar Network.dyn_peer[971] 	lookupStabilitySig:mean 	0.67380952214201
scalar Network.dyn_peer[971] 	lookupHopsSig:mean 	4
scalar Network.dyn_peer[972] 	lookupTimeSig:mean 	3.1666666666667
scalar Network.dyn_peer[972] 	lookupStabilitySig:mean 	0.7500387703379
scalar Network.dyn_peer[972] 	lookupHopsSig:mean 	31
scalar Network.dyn_peer[973] 	lookupTimeSig:mean 	2.15
scalar Network.dyn_peer[973] 	lookupStabilitySig:mean 	0.8615787854651
scalar Network.dyn_peer[973] 	lookupHopsSig:mean 	20.625
scalar Network.dyn_peer[974] 	lookupTimeSig:mean 	1.2333333333333
scalar Network.dyn_peer[974] 	lookupStabilitySig:mean 	0.89545956160873
scalar Network.dyn_peer[974] 	lookupHopsSig:mean 	11.416666666667
scalar Network.dyn_peer[975] 	lookupTimeSig:mean 	1.22
scalar Network.dyn_peer[975] 	lookupStabilitySig:mean 	0.78423072323203
scalar Network.dyn_peer[975] 	lookupHopsSig:mean 	11.4
scalar Network.dyn_peer[976] 	lookupTimeSig:mean 	1.96
scalar Network.dyn_peer[976] 	lookupStabilitySig:mean 	0.71993433535099
scalar Network.dyn_peer[976] 	lookupHopsSig:mean 	18.8
scalar Network.dyn_peer[977] 	lookupTimeSig:mean 	2
scalar Network.dyn_peer[977] 	lookupStabilitySig:mean 	0.77322052170833
scalar Network.dyn_peer[977] 	lookupHopsSig:mean 	19.333333333333
scalar Network.dyn_peer[978] 	lookupTimeSig:mean 	2.5857142857143
scalar Network.dyn_peer[978] 	lookupStabilitySig:mean 	0.9557084966717
scalar Network.dyn_peer[978] 	lookupHopsSig:mean 	25
scalar Network.dyn_peer[979] 	lookupTimeSig:mean 	1.8692307692308
scalar Network.dyn_peer[979] 	lookupStabilitySig:mean 	0.95640170860749
scalar Network.dyn_peer[979] 	lookupHopsSig:mean 	17.769230769231
scalar Network.dyn_peer[980] 	lookupTimeSig:mean 	0.83333333333333
scalar Network.dyn_peer[980] 	lookupStabilitySig:mean 	0.6532084196806
scalar Network.dyn_peer[980] 	lookupHopsSig:mean 	7.6666666666667
scalar Network.dyn_peer[981] 	lookupTimeSig:mean 	3
scalar Network.dyn_peer[981] 	lookupStabilitySig:mean 	0.70229924470186
scalar Network.dyn_peer[981] 	lookupHopsSig:mean 	29.5
scalar Network.dyn_peer[982] 	lookupTimeSig:mean 	1.3
scalar Network.dyn_peer[982] 	lookupStabilitySig:mean 	0.65586980928977
scalar Network.dyn_peer[982] 	lookupHopsSig:mean 	12.333333333333
scalar Network.dyn_peer[983] 	lookupTimeSig:mean 	1.6857142857143
scalar Network.dyn_peer[983] 	lookupStabilitySig:mean 	0.90095894025373
scalar Network.dyn_peer[983] 	lookupHopsSig:mean 	16
scalar Network.dyn_peer[984] 	lookupTimeSig:mean 	1.675
scalar Network.dyn_peer[984] 	lookupStabilitySig:mean 	0.89471510704607
scalar Network.dyn_peer[984] 	lookupHopsSig:mean 	16
scalar Network.dyn_peer[985] 	lookupTimeSig:mean 	1.8111111111111
scalar Network.dyn_peer[985] 	lookupStabilitySig:mean 	0.88385055203819
scalar Network.dyn_peer[985] 	lookupHopsSig:mean 	17.222222222222
scalar Network.dyn_peer[986] 	lookupTimeSig:mean 	1.1888888888889
scalar Network.dyn_peer[986] 	lookupStabilitySig:mean 	0.8956193175529
scalar Network.dyn_peer[986] 	lookupHopsSig:mean 	11
scalar Network.dyn_peer[987] 	lookupTimeSig:mean 	1.48
scalar Network.dyn_peer[987] 	lookupStabilitySig:mean 	0.81612605005503
scalar Network.dyn_peer[987] 	lookupHopsSig:mean 	14
scalar Network.dyn_peer[988] 	lookupTimeSig:mean 	1.18
scalar Network.dyn_peer[988] 	lookupStabilitySig:mean 	0.7339390873909
scalar Network.dyn_peer[988] 	lookupHopsSig:mean 	11
scalar Network.dyn_peer[989] 	lookupTimeSig:mean 	1.8
scalar Network.dyn_peer[989] 	lookupStabilitySig:mean 	0.93472187096874
scalar Network.dyn_peer[989] 	lookupHopsSig:mean 	17.111111111111
scalar Network.dyn_peer[990] 	lookupTimeSig:mean 	1.2625
scalar Network.dyn_peer[990] 	lookupStabilitySig:mean 	0.88391429552576
scalar Network.dyn_peer[990] 	lookupHopsSig:mean 	11.75
scalar Network.dyn_peer[991] 	lookupTimeSig:mean 	1.81
scalar Network.dyn_peer[991] 	lookupStabilitySig:mean 	0.96015620036051
scalar Network.dyn_peer[991] 	lookupHopsSig:mean 	17.2
scalar Network.dyn_peer[992] 	lookupTimeSig:mean 	2
scalar Network.dyn_peer[992] 	lookupStabilitySig:mean 	0.90284022728779
scalar Network.dyn_peer[992] 	lookupHopsSig:mean 	19.142857142857
scalar Network.dyn_peer[993] 	lookupTimeSig:mean 	1.7
scalar Network.dyn_peer[993] 	lookupStabilitySig:mean 	0.79053666535765
scalar Network.dyn_peer[993] 	lookupHopsSig:mean 	16.25
scalar Network.dyn_peer[994] 	lookupTimeSig:mean 	1.8714285714286
scalar Network.dyn_peer[994] 	lookupStabilitySig:mean 	0.90470025182835
scalar Network.dyn_peer[994] 	lookupHopsSig:mean 	17.857142857143
scalar Network.dyn_peer[995] 	lookupTimeSig:mean 	1.75
scalar Network.dyn_peer[995] 	lookupStabilitySig:mean 	0.87817307064931
scalar Network.dyn_peer[995] 	lookupHopsSig:mean 	16.666666666667
scalar Network.dyn_peer[996] 	lookupTimeSig:mean 	1.9714285714286
scalar Network.dyn_peer[996] 	lookupStabilitySig:mean 	0.93895657759692
scalar Network.dyn_peer[996] 	lookupHopsSig:mean 	18.857142857143
scalar Network.dyn_peer[997] 	lookupTimeSig:mean 	1.9875
scalar Network.dyn_peer[997] 	lookupStabilitySig:mean 	0.95101767429151
scalar Network.dyn_peer[997] 	lookupHopsSig:mean 	19
scalar Network.dyn_peer[998] 	lookupTimeSig:mean 	0.7
scalar Network.dyn_peer[998] 	lookupStabilitySig:mean 	0.56818181276321
scalar Network.dyn_peer[998] 	lookupHopsSig:mean 	6.5
scalar Network.dyn_peer[999] 	lookupTimeSig:mean 	2.56
scalar Network.dyn_peer[999] 	lookupStabilitySig:mean 	0.87204324938357
scalar Network.dyn_peer[999] 	lookupHopsSig:mean 	24.8
scalar Network.churner 	inGoingSizeSig:mean 	498.96303696304
