version 2
run Stability2-308-20130526-00:54:41-26640
attr configname Stability2
attr datetime 20130526-00:54:41
attr experiment Stability2
attr inifile omnetpp.ini
attr iterationvars $0=1000
attr iterationvars2 "$0=1000, $repetition=8"
attr measurement $0=1000
attr network Network
attr processid 26640
attr repetition 8
attr replication #8
attr resultdir results
attr runnumber 308
attr seedset 308

scalar Network.dyn_peer[0] 	lookupTimeSig:mean 	1.25
scalar Network.dyn_peer[0] 	lookupStabilitySig:mean 	0.46495030696193
scalar Network.dyn_peer[0] 	lookupHopsSig:mean 	11.666666666667
scalar Network.dyn_peer[1] 	lookupTimeSig:mean 	1.45
scalar Network.dyn_peer[1] 	lookupStabilitySig:mean 	0.7261733911233
scalar Network.dyn_peer[1] 	lookupHopsSig:mean 	13.6
scalar Network.dyn_peer[2] 	lookupTimeSig:mean 	1.34
scalar Network.dyn_peer[2] 	lookupStabilitySig:mean 	0.37304925620556
scalar Network.dyn_peer[2] 	lookupHopsSig:mean 	12.6
scalar Network.dyn_peer[3] 	lookupTimeSig:mean 	1.4333333333333
scalar Network.dyn_peer[3] 	lookupStabilitySig:mean 	0.094636003176371
scalar Network.dyn_peer[3] 	lookupHopsSig:mean 	13.666666666667
scalar Network.dyn_peer[4] 	lookupTimeSig:mean 	1.5
scalar Network.dyn_peer[4] 	lookupStabilitySig:mean 	0.55214314961008
scalar Network.dyn_peer[4] 	lookupHopsSig:mean 	14.142857142857
scalar Network.dyn_peer[5] 	lookupTimeSig:mean 	1.65
scalar Network.dyn_peer[5] 	lookupStabilitySig:mean 	0.34536240715533
scalar Network.dyn_peer[5] 	lookupHopsSig:mean 	15.75
scalar Network.dyn_peer[6] 	lookupTimeSig:mean 	1.3333333333333
scalar Network.dyn_peer[6] 	lookupStabilitySig:mean 	0.08979590733846
scalar Network.dyn_peer[6] 	lookupHopsSig:mean 	12.666666666667
scalar Network.dyn_peer[7] 	lookupTimeSig:mean 	1.8363636363636
scalar Network.dyn_peer[7] 	lookupStabilitySig:mean 	0.85592734390362
scalar Network.dyn_peer[7] 	lookupHopsSig:mean 	17.454545454545
scalar Network.dyn_peer[8] 	lookupTimeSig:mean 	2.75
scalar Network.dyn_peer[8] 	lookupStabilitySig:mean 	0.40951126813889
scalar Network.dyn_peer[8] 	lookupHopsSig:mean 	26.75
scalar Network.dyn_peer[9] 	lookupTimeSig:mean 	1.1
scalar Network.dyn_peer[9] 	lookupStabilitySig:mean 	0.55247451404908
scalar Network.dyn_peer[9] 	lookupHopsSig:mean 	10.142857142857
scalar Network.dyn_peer[10] 	lookupTimeSig:mean 	1.72
scalar Network.dyn_peer[10] 	lookupStabilitySig:mean 	0.4192891843617
scalar Network.dyn_peer[10] 	lookupHopsSig:mean 	16.4
scalar Network.dyn_peer[11] 	lookupTimeSig:mean 	1.95
scalar Network.dyn_peer[11] 	lookupStabilitySig:mean 	0.5589060280472
scalar Network.dyn_peer[11] 	lookupHopsSig:mean 	18.75
scalar Network.dyn_peer[12] 	lookupTimeSig:mean 	1.78
scalar Network.dyn_peer[12] 	lookupStabilitySig:mean 	0.71820880174637
scalar Network.dyn_peer[12] 	lookupHopsSig:mean 	17
scalar Network.dyn_peer[13] 	lookupTimeSig:mean 	4.25
scalar Network.dyn_peer[13] 	lookupStabilitySig:mean 	0.53586005419493
scalar Network.dyn_peer[13] 	lookupHopsSig:mean 	42
scalar Network.dyn_peer[14] 	lookupTimeSig:mean 	3.1333333333333
scalar Network.dyn_peer[14] 	lookupStabilitySig:mean 	0.85329682007432
scalar Network.dyn_peer[14] 	lookupHopsSig:mean 	30.666666666667
scalar Network.dyn_peer[15] 	lookupTimeSig:mean 	1.46
scalar Network.dyn_peer[15] 	lookupStabilitySig:mean 	0.38425423428416
scalar Network.dyn_peer[15] 	lookupHopsSig:mean 	13.8
scalar Network.dyn_peer[16] 	lookupTimeSig:mean 	1.85
scalar Network.dyn_peer[16] 	lookupStabilitySig:mean 	0.18933354970068
scalar Network.dyn_peer[16] 	lookupHopsSig:mean 	17.75
scalar Network.dyn_peer[17] 	lookupTimeSig:mean 	2.42
scalar Network.dyn_peer[17] 	lookupStabilitySig:mean 	0.68378751445562
scalar Network.dyn_peer[17] 	lookupHopsSig:mean 	23.4
scalar Network.dyn_peer[18] 	lookupTimeSig:mean 	2.6
scalar Network.dyn_peer[18] 	lookupStabilitySig:mean 	-0.27920965850353
scalar Network.dyn_peer[18] 	lookupHopsSig:mean 	25.5
scalar Network.dyn_peer[19] 	lookupTimeSig:mean 	4.25
scalar Network.dyn_peer[19] 	lookupStabilitySig:mean 	0.089534871280193
scalar Network.dyn_peer[19] 	lookupHopsSig:mean 	42
scalar Network.dyn_peer[20] 	lookupTimeSig:mean 	1.25
scalar Network.dyn_peer[20] 	lookupStabilitySig:mean 	0.43024343252182
scalar Network.dyn_peer[20] 	lookupHopsSig:mean 	11.75
scalar Network.dyn_peer[21] 	lookupTimeSig:mean 	1.2833333333333
scalar Network.dyn_peer[21] 	lookupStabilitySig:mean 	0.60470298801859
scalar Network.dyn_peer[21] 	lookupHopsSig:mean 	12
scalar Network.dyn_peer[22] 	lookupTimeSig:mean 	1.1666666666667
scalar Network.dyn_peer[22] 	lookupStabilitySig:mean 	0.43258941794435
scalar Network.dyn_peer[22] 	lookupHopsSig:mean 	10.833333333333
scalar Network.dyn_peer[23] 	lookupTimeSig:mean 	1.45
scalar Network.dyn_peer[23] 	lookupStabilitySig:mean 	0.74753487370908
scalar Network.dyn_peer[23] 	lookupHopsSig:mean 	13.6
scalar Network.dyn_peer[24] 	lookupTimeSig:mean 	2.475
scalar Network.dyn_peer[24] 	lookupStabilitySig:mean 	0.24939555302262
scalar Network.dyn_peer[24] 	lookupHopsSig:mean 	24
scalar Network.dyn_peer[25] 	lookupTimeSig:mean 	3.1
scalar Network.dyn_peer[25] 	lookupStabilitySig:mean 	0.39902198811372
scalar Network.dyn_peer[25] 	lookupHopsSig:mean 	30.333333333333
scalar Network.dyn_peer[26] 	lookupTimeSig:mean 	1.2142857142857
scalar Network.dyn_peer[26] 	lookupStabilitySig:mean 	0.5340883835618
scalar Network.dyn_peer[26] 	lookupHopsSig:mean 	11.285714285714
scalar Network.dyn_peer[27] 	lookupTimeSig:mean 	1.55
scalar Network.dyn_peer[27] 	lookupStabilitySig:mean 	0.59365590580273
scalar Network.dyn_peer[27] 	lookupHopsSig:mean 	14.625
scalar Network.dyn_peer[28] 	lookupTimeSig:mean 	1.7666666666667
scalar Network.dyn_peer[28] 	lookupStabilitySig:mean 	0.26538461446762
scalar Network.dyn_peer[28] 	lookupHopsSig:mean 	17
scalar Network.dyn_peer[29] 	lookupTimeSig:mean 	2
scalar Network.dyn_peer[29] 	lookupStabilitySig:mean 	0.17273385326068
scalar Network.dyn_peer[29] 	lookupHopsSig:mean 	19.333333333333
scalar Network.dyn_peer[30] 	lookupTimeSig:mean 	2.5
scalar Network.dyn_peer[30] 	lookupStabilitySig:mean 	0.91049926239066
scalar Network.dyn_peer[30] 	lookupHopsSig:mean 	24.25
scalar Network.dyn_peer[31] 	lookupTimeSig:mean 	3.125
scalar Network.dyn_peer[31] 	lookupStabilitySig:mean 	0.71243618731387
scalar Network.dyn_peer[31] 	lookupHopsSig:mean 	30.5
scalar Network.dyn_peer[32] 	lookupTimeSig:mean 	1.9
scalar Network.dyn_peer[32] 	lookupStabilitySig:mean 	0.64042786295925
scalar Network.dyn_peer[32] 	lookupHopsSig:mean 	18.142857142857
scalar Network.dyn_peer[33] 	lookupTimeSig:mean 	1.4333333333333
scalar Network.dyn_peer[33] 	lookupStabilitySig:mean 	0.25326681137085
scalar Network.dyn_peer[33] 	lookupHopsSig:mean 	13.666666666667
scalar Network.dyn_peer[34] 	lookupTimeSig:mean 	1.9555555555556
scalar Network.dyn_peer[34] 	lookupStabilitySig:mean 	0.73337568166769
scalar Network.dyn_peer[34] 	lookupHopsSig:mean 	18.666666666667
scalar Network.dyn_peer[35] 	lookupTimeSig:mean 	2.3833333333333
scalar Network.dyn_peer[35] 	lookupStabilitySig:mean 	0.62321244785562
scalar Network.dyn_peer[35] 	lookupHopsSig:mean 	23
scalar Network.dyn_peer[36] 	lookupTimeSig:mean 	1
scalar Network.dyn_peer[36] 	lookupStabilitySig:mean 	0.64746094786096
scalar Network.dyn_peer[36] 	lookupHopsSig:mean 	9.125
scalar Network.dyn_peer[37] 	lookupTimeSig:mean 	1.8
scalar Network.dyn_peer[37] 	lookupStabilitySig:mean 	0.64110067455719
scalar Network.dyn_peer[37] 	lookupHopsSig:mean 	17.166666666667
scalar Network.dyn_peer[38] 	lookupTimeSig:mean 	1.5375
scalar Network.dyn_peer[38] 	lookupStabilitySig:mean 	0.80619533424033
scalar Network.dyn_peer[38] 	lookupHopsSig:mean 	14.5
scalar Network.dyn_peer[39] 	lookupTimeSig:mean 	1.4833333333333
scalar Network.dyn_peer[39] 	lookupStabilitySig:mean 	0.464026061818
scalar Network.dyn_peer[39] 	lookupHopsSig:mean 	14
scalar Network.dyn_peer[40] 	lookupTimeSig:mean 	1.8333333333333
scalar Network.dyn_peer[40] 	lookupStabilitySig:mean 	0.59062877809629
scalar Network.dyn_peer[40] 	lookupHopsSig:mean 	17.5
scalar Network.dyn_peer[41] 	lookupTimeSig:mean 	1.3333333333333
scalar Network.dyn_peer[41] 	lookupStabilitySig:mean 	0.30808079242706
scalar Network.dyn_peer[41] 	lookupHopsSig:mean 	12.666666666667
scalar Network.dyn_peer[42] 	lookupTimeSig:mean 	1.5
scalar Network.dyn_peer[42] 	lookupStabilitySig:mean 	0.60198261681944
scalar Network.dyn_peer[42] 	lookupHopsSig:mean 	14.142857142857
scalar Network.dyn_peer[43] 	lookupTimeSig:mean 	2.6
scalar Network.dyn_peer[43] 	lookupStabilitySig:mean 	0.4359710585326
scalar Network.dyn_peer[43] 	lookupHopsSig:mean 	25.2
scalar Network.dyn_peer[44] 	lookupTimeSig:mean 	1.3333333333333
scalar Network.dyn_peer[44] 	lookupStabilitySig:mean 	0.74531320563983
scalar Network.dyn_peer[44] 	lookupHopsSig:mean 	12.416666666667
scalar Network.dyn_peer[45] 	lookupTimeSig:mean 	1.86
scalar Network.dyn_peer[45] 	lookupStabilitySig:mean 	0.44092116095126
scalar Network.dyn_peer[45] 	lookupHopsSig:mean 	17.8
scalar Network.dyn_peer[46] 	lookupTimeSig:mean 	1.2857142857143
scalar Network.dyn_peer[46] 	lookupStabilitySig:mean 	0.55216679881726
scalar Network.dyn_peer[46] 	lookupHopsSig:mean 	12
scalar Network.dyn_peer[47] 	lookupTimeSig:mean 	2.05
scalar Network.dyn_peer[47] 	lookupStabilitySig:mean 	0.53355877023811
scalar Network.dyn_peer[47] 	lookupHopsSig:mean 	19.666666666667
scalar Network.dyn_peer[48] 	lookupTimeSig:mean 	2.4666666666667
scalar Network.dyn_peer[48] 	lookupStabilitySig:mean 	0.1292727937301
scalar Network.dyn_peer[48] 	lookupHopsSig:mean 	24
scalar Network.dyn_peer[49] 	lookupTimeSig:mean 	2.24
scalar Network.dyn_peer[49] 	lookupStabilitySig:mean 	0.45446298271418
scalar Network.dyn_peer[49] 	lookupHopsSig:mean 	21.6
scalar Network.dyn_peer[50] 	lookupTimeSig:mean 	1.8625
scalar Network.dyn_peer[50] 	lookupStabilitySig:mean 	0.92564749220037
scalar Network.dyn_peer[50] 	lookupHopsSig:mean 	17.75
scalar Network.dyn_peer[51] 	lookupTimeSig:mean 	0.95
scalar Network.dyn_peer[51] 	lookupStabilitySig:mean 	0.30601341277361
scalar Network.dyn_peer[51] 	lookupHopsSig:mean 	8.75
scalar Network.dyn_peer[52] 	lookupTimeSig:mean 	2.85
scalar Network.dyn_peer[52] 	lookupStabilitySig:mean 	0.2810928337276
scalar Network.dyn_peer[52] 	lookupHopsSig:mean 	27.75
scalar Network.dyn_peer[53] 	lookupTimeSig:mean 	5.55
scalar Network.dyn_peer[53] 	lookupStabilitySig:mean 	-0.1484519392252
scalar Network.dyn_peer[53] 	lookupHopsSig:mean 	55
scalar Network.dyn_peer[54] 	lookupTimeSig:mean 	1.1
scalar Network.dyn_peer[54] 	lookupStabilitySig:mean 	0.59707152936608
scalar Network.dyn_peer[54] 	lookupHopsSig:mean 	10.111111111111
scalar Network.dyn_peer[55] 	lookupTimeSig:mean 	1.8666666666667
scalar Network.dyn_peer[55] 	lookupStabilitySig:mean 	0.10833272337914
scalar Network.dyn_peer[55] 	lookupHopsSig:mean 	18
scalar Network.dyn_peer[56] 	lookupTimeSig:mean 	2.38
scalar Network.dyn_peer[56] 	lookupStabilitySig:mean 	0.61852218806744
scalar Network.dyn_peer[56] 	lookupHopsSig:mean 	23
scalar Network.dyn_peer[57] 	lookupTimeSig:mean 	1.8333333333333
scalar Network.dyn_peer[57] 	lookupStabilitySig:mean 	0.7135623334907
scalar Network.dyn_peer[57] 	lookupHopsSig:mean 	17.5
scalar Network.dyn_peer[58] 	lookupTimeSig:mean 	2.62
scalar Network.dyn_peer[58] 	lookupStabilitySig:mean 	0.65446267649531
scalar Network.dyn_peer[58] 	lookupHopsSig:mean 	25.4
scalar Network.dyn_peer[59] 	lookupTimeSig:mean 	1.7714285714286
scalar Network.dyn_peer[59] 	lookupStabilitySig:mean 	0.53675616672263
scalar Network.dyn_peer[59] 	lookupHopsSig:mean 	16.857142857143
scalar Network.dyn_peer[60] 	lookupTimeSig:mean 	1.675
scalar Network.dyn_peer[60] 	lookupStabilitySig:mean 	0.23987432383001
scalar Network.dyn_peer[60] 	lookupHopsSig:mean 	16
scalar Network.dyn_peer[61] 	lookupTimeSig:mean 	3.5
scalar Network.dyn_peer[61] 	lookupStabilitySig:mean 	0.52809563372284
scalar Network.dyn_peer[61] 	lookupHopsSig:mean 	34.25
scalar Network.dyn_peer[62] 	lookupTimeSig:mean 	1.2875
scalar Network.dyn_peer[62] 	lookupStabilitySig:mean 	0.61868200474419
scalar Network.dyn_peer[62] 	lookupHopsSig:mean 	12
scalar Network.dyn_peer[63] 	lookupTimeSig:mean 	2.1375
scalar Network.dyn_peer[63] 	lookupStabilitySig:mean 	0.89108469174244
scalar Network.dyn_peer[63] 	lookupHopsSig:mean 	20.5
scalar Network.dyn_peer[64] 	lookupTimeSig:mean 	2.05
scalar Network.dyn_peer[64] 	lookupStabilitySig:mean 	0.68592556379735
scalar Network.dyn_peer[64] 	lookupHopsSig:mean 	19.75
scalar Network.dyn_peer[65] 	lookupTimeSig:mean 	1.55
scalar Network.dyn_peer[65] 	lookupStabilitySig:mean 	0.29999999701977
scalar Network.dyn_peer[65] 	lookupHopsSig:mean 	15
scalar Network.dyn_peer[66] 	lookupTimeSig:mean 	2.3076923076923
scalar Network.dyn_peer[66] 	lookupStabilitySig:mean 	0.93559242373046
scalar Network.dyn_peer[66] 	lookupHopsSig:mean 	22.153846153846
scalar Network.dyn_peer[67] 	lookupTimeSig:mean 	2.6666666666667
scalar Network.dyn_peer[67] 	lookupStabilitySig:mean 	0.77553040285905
scalar Network.dyn_peer[67] 	lookupHopsSig:mean 	26
scalar Network.dyn_peer[68] 	lookupTimeSig:mean 	2.4
scalar Network.dyn_peer[68] 	lookupStabilitySig:mean 	0.53528074175119
scalar Network.dyn_peer[68] 	lookupHopsSig:mean 	23.25
scalar Network.dyn_peer[69] 	lookupTimeSig:mean 	3.2333333333333
scalar Network.dyn_peer[69] 	lookupStabilitySig:mean 	0.75744893526038
scalar Network.dyn_peer[69] 	lookupHopsSig:mean 	31.666666666667
scalar Network.dyn_peer[70] 	lookupTimeSig:mean 	2.4333333333333
scalar Network.dyn_peer[70] 	lookupStabilitySig:mean 	0.14744101588925
scalar Network.dyn_peer[70] 	lookupHopsSig:mean 	23.666666666667
scalar Network.dyn_peer[71] 	lookupTimeSig:mean 	1.6
scalar Network.dyn_peer[71] 	lookupStabilitySig:mean 	0.70319415739505
scalar Network.dyn_peer[71] 	lookupHopsSig:mean 	15.125
scalar Network.dyn_peer[72] 	lookupTimeSig:mean 	1.5857142857143
scalar Network.dyn_peer[72] 	lookupStabilitySig:mean 	0.85574101689937
scalar Network.dyn_peer[72] 	lookupHopsSig:mean 	15
scalar Network.dyn_peer[73] 	lookupTimeSig:mean 	2
scalar Network.dyn_peer[73] 	lookupStabilitySig:mean 	0.41876934170723
scalar Network.dyn_peer[73] 	lookupHopsSig:mean 	19.2
scalar Network.dyn_peer[74] 	lookupTimeSig:mean 	1.1714285714286
scalar Network.dyn_peer[74] 	lookupStabilitySig:mean 	0.62884688483817
scalar Network.dyn_peer[74] 	lookupHopsSig:mean 	10.857142857143
scalar Network.dyn_peer[75] 	lookupTimeSig:mean 	3.3
scalar Network.dyn_peer[75] 	lookupStabilitySig:mean 	-0.13802082836628
scalar Network.dyn_peer[75] 	lookupHopsSig:mean 	32.5
scalar Network.dyn_peer[76] 	lookupTimeSig:mean 	1.675
scalar Network.dyn_peer[76] 	lookupStabilitySig:mean 	0.82935951996478
scalar Network.dyn_peer[76] 	lookupHopsSig:mean 	15.8125
scalar Network.dyn_peer[77] 	lookupTimeSig:mean 	1.0846153846154
scalar Network.dyn_peer[77] 	lookupStabilitySig:mean 	0.75401926132886
scalar Network.dyn_peer[77] 	lookupHopsSig:mean 	9.9230769230769
scalar Network.dyn_peer[78] 	lookupTimeSig:mean 	2.02
scalar Network.dyn_peer[78] 	lookupStabilitySig:mean 	0.58323688283563
scalar Network.dyn_peer[78] 	lookupHopsSig:mean 	19.4
scalar Network.dyn_peer[79] 	lookupTimeSig:mean 	1.64
scalar Network.dyn_peer[79] 	lookupStabilitySig:mean 	0.58880601599813
scalar Network.dyn_peer[79] 	lookupHopsSig:mean 	15.6
scalar Network.dyn_peer[80] 	lookupTimeSig:mean 	2
scalar Network.dyn_peer[80] 	lookupStabilitySig:mean 	0.38012819271535
scalar Network.dyn_peer[80] 	lookupHopsSig:mean 	19.25
scalar Network.dyn_peer[81] 	lookupTimeSig:mean 	3.2
scalar Network.dyn_peer[81] 	lookupStabilitySig:mean 	0.91135596688837
scalar Network.dyn_peer[81] 	lookupHopsSig:mean 	31.2
scalar Network.dyn_peer[82] 	lookupTimeSig:mean 	2.25
scalar Network.dyn_peer[82] 	lookupStabilitySig:mean 	0.62426803819835
scalar Network.dyn_peer[82] 	lookupHopsSig:mean 	21.75
scalar Network.dyn_peer[83] 	lookupTimeSig:mean 	1.6714285714286
scalar Network.dyn_peer[83] 	lookupStabilitySig:mean 	0.88145938994629
scalar Network.dyn_peer[83] 	lookupHopsSig:mean 	15.857142857143
scalar Network.dyn_peer[84] 	lookupTimeSig:mean 	1.625
scalar Network.dyn_peer[84] 	lookupStabilitySig:mean 	0.2326502725482
scalar Network.dyn_peer[84] 	lookupHopsSig:mean 	15.5
scalar Network.dyn_peer[85] 	lookupTimeSig:mean 	2.6
scalar Network.dyn_peer[85] 	lookupStabilitySig:mean 	0.52927540913224
scalar Network.dyn_peer[85] 	lookupHopsSig:mean 	25.2
scalar Network.dyn_peer[86] 	lookupTimeSig:mean 	2.925
scalar Network.dyn_peer[86] 	lookupStabilitySig:mean 	0.80454525724053
scalar Network.dyn_peer[86] 	lookupHopsSig:mean 	28.5
scalar Network.dyn_peer[87] 	lookupTimeSig:mean 	1.89
scalar Network.dyn_peer[87] 	lookupStabilitySig:mean 	0.94779013493098
scalar Network.dyn_peer[87] 	lookupHopsSig:mean 	18
scalar Network.dyn_peer[88] 	lookupTimeSig:mean 	1.8
scalar Network.dyn_peer[88] 	lookupStabilitySig:mean 	0.61146805435419
scalar Network.dyn_peer[88] 	lookupHopsSig:mean 	17.25
scalar Network.dyn_peer[89] 	lookupTimeSig:mean 	2.02
scalar Network.dyn_peer[89] 	lookupStabilitySig:mean 	0.8236522459425
scalar Network.dyn_peer[89] 	lookupHopsSig:mean 	19.3
scalar Network.dyn_peer[90] 	lookupTimeSig:mean 	1.65
scalar Network.dyn_peer[90] 	lookupStabilitySig:mean 	0.36796206515282
scalar Network.dyn_peer[90] 	lookupHopsSig:mean 	15.75
scalar Network.dyn_peer[91] 	lookupTimeSig:mean 	2.1833333333333
scalar Network.dyn_peer[91] 	lookupStabilitySig:mean 	0.85539829048018
scalar Network.dyn_peer[91] 	lookupHopsSig:mean 	21
scalar Network.dyn_peer[92] 	lookupTimeSig:mean 	2.36
scalar Network.dyn_peer[92] 	lookupStabilitySig:mean 	0.78758341632783
scalar Network.dyn_peer[92] 	lookupHopsSig:mean 	22.8
scalar Network.dyn_peer[93] 	lookupTimeSig:mean 	1.5714285714286
scalar Network.dyn_peer[93] 	lookupStabilitySig:mean 	0.62068649627534
scalar Network.dyn_peer[93] 	lookupHopsSig:mean 	14.857142857143
scalar Network.dyn_peer[94] 	lookupTimeSig:mean 	1.54
scalar Network.dyn_peer[94] 	lookupStabilitySig:mean 	0.75046677263454
scalar Network.dyn_peer[94] 	lookupHopsSig:mean 	14.5
scalar Network.dyn_peer[95] 	lookupTimeSig:mean 	1.7333333333333
scalar Network.dyn_peer[95] 	lookupStabilitySig:mean 	0.65159618306077
scalar Network.dyn_peer[95] 	lookupHopsSig:mean 	16.444444444444
scalar Network.dyn_peer[96] 	lookupTimeSig:mean 	2.6
scalar Network.dyn_peer[96] 	lookupStabilitySig:mean 	0.36732672154903
scalar Network.dyn_peer[96] 	lookupHopsSig:mean 	25.5
scalar Network.dyn_peer[97] 	lookupTimeSig:mean 	1.66
scalar Network.dyn_peer[97] 	lookupStabilitySig:mean 	0.79632468093187
scalar Network.dyn_peer[97] 	lookupHopsSig:mean 	15.7
scalar Network.dyn_peer[98] 	lookupTimeSig:mean 	1.65
scalar Network.dyn_peer[98] 	lookupStabilitySig:mean 	0.535400563851
scalar Network.dyn_peer[98] 	lookupHopsSig:mean 	15.75
scalar Network.dyn_peer[99] 	lookupTimeSig:mean 	1.3285714285714
scalar Network.dyn_peer[99] 	lookupStabilitySig:mean 	0.81828351784497
scalar Network.dyn_peer[99] 	lookupHopsSig:mean 	12.428571428571
scalar Network.dyn_peer[100] 	lookupTimeSig:mean 	2.0375
scalar Network.dyn_peer[100] 	lookupStabilitySig:mean 	0.88202286255546
scalar Network.dyn_peer[100] 	lookupHopsSig:mean 	19.5
scalar Network.dyn_peer[101] 	lookupTimeSig:mean 	2.125
scalar Network.dyn_peer[101] 	lookupStabilitySig:mean 	0.818718602648
scalar Network.dyn_peer[101] 	lookupHopsSig:mean 	20.375
scalar Network.dyn_peer[102] 	lookupTimeSig:mean 	2.2666666666667
scalar Network.dyn_peer[102] 	lookupStabilitySig:mean 	0.69317543506622
scalar Network.dyn_peer[102] 	lookupHopsSig:mean 	21.833333333333
scalar Network.dyn_peer[103] 	lookupTimeSig:mean 	2.09
scalar Network.dyn_peer[103] 	lookupStabilitySig:mean 	0.92951230048202
scalar Network.dyn_peer[103] 	lookupHopsSig:mean 	20
scalar Network.dyn_peer[104] 	lookupTimeSig:mean 	2.48
scalar Network.dyn_peer[104] 	lookupStabilitySig:mean 	0.46381452977657
scalar Network.dyn_peer[104] 	lookupHopsSig:mean 	24
scalar Network.dyn_peer[105] 	lookupTimeSig:mean 	1.525
scalar Network.dyn_peer[105] 	lookupStabilitySig:mean 	0.66972640622407
scalar Network.dyn_peer[105] 	lookupHopsSig:mean 	14.5
scalar Network.dyn_peer[106] 	lookupTimeSig:mean 	2.9
scalar Network.dyn_peer[106] 	lookupStabilitySig:mean 	0.68958489783108
scalar Network.dyn_peer[106] 	lookupHopsSig:mean 	28.25
scalar Network.dyn_peer[107] 	lookupTimeSig:mean 	1.74
scalar Network.dyn_peer[107] 	lookupStabilitySig:mean 	0.48370122760534
scalar Network.dyn_peer[107] 	lookupHopsSig:mean 	16.6
scalar Network.dyn_peer[108] 	lookupTimeSig:mean 	1.6142857142857
scalar Network.dyn_peer[108] 	lookupStabilitySig:mean 	0.81971925270877
scalar Network.dyn_peer[108] 	lookupHopsSig:mean 	15.285714285714
scalar Network.dyn_peer[109] 	lookupTimeSig:mean 	1.05
scalar Network.dyn_peer[109] 	lookupStabilitySig:mean 	0.35833331383765
scalar Network.dyn_peer[109] 	lookupHopsSig:mean 	9.75
scalar Network.dyn_peer[110] 	lookupTimeSig:mean 	1.65
scalar Network.dyn_peer[110] 	lookupStabilitySig:mean 	0.73323166533373
scalar Network.dyn_peer[110] 	lookupHopsSig:mean 	15.625
scalar Network.dyn_peer[111] 	lookupTimeSig:mean 	1.825
scalar Network.dyn_peer[111] 	lookupStabilitySig:mean 	0.69552800105885
scalar Network.dyn_peer[111] 	lookupHopsSig:mean 	17.5
scalar Network.dyn_peer[112] 	lookupTimeSig:mean 	1.55
scalar Network.dyn_peer[112] 	lookupStabilitySig:mean 	0.44817413793256
scalar Network.dyn_peer[112] 	lookupHopsSig:mean 	14.666666666667
scalar Network.dyn_peer[113] 	lookupTimeSig:mean 	2.3
scalar Network.dyn_peer[113] 	lookupStabilitySig:mean 	0.33376622200012
scalar Network.dyn_peer[113] 	lookupHopsSig:mean 	22.5
scalar Network.dyn_peer[114] 	lookupTimeSig:mean 	1.5
scalar Network.dyn_peer[114] 	lookupStabilitySig:mean 	0.70107370428741
scalar Network.dyn_peer[114] 	lookupHopsSig:mean 	14.25
scalar Network.dyn_peer[115] 	lookupTimeSig:mean 	1.7
scalar Network.dyn_peer[115] 	lookupStabilitySig:mean 	0.79139558039606
scalar Network.dyn_peer[115] 	lookupHopsSig:mean 	16.166666666667
scalar Network.dyn_peer[116] 	lookupTimeSig:mean 	2.0875
scalar Network.dyn_peer[116] 	lookupStabilitySig:mean 	0.92840345692821
scalar Network.dyn_peer[116] 	lookupHopsSig:mean 	20
scalar Network.dyn_peer[117] 	lookupTimeSig:mean 	2.4285714285714
scalar Network.dyn_peer[117] 	lookupStabilitySig:mean 	0.87950416960354
scalar Network.dyn_peer[117] 	lookupHopsSig:mean 	23.428571428571
scalar Network.dyn_peer[118] 	lookupTimeSig:mean 	4.85
scalar Network.dyn_peer[118] 	lookupStabilitySig:mean 	0.69461882859468
scalar Network.dyn_peer[118] 	lookupHopsSig:mean 	48
scalar Network.dyn_peer[119] 	lookupTimeSig:mean 	1.5
scalar Network.dyn_peer[119] 	lookupStabilitySig:mean 	0.31765016540885
scalar Network.dyn_peer[119] 	lookupHopsSig:mean 	14.25
scalar Network.dyn_peer[120] 	lookupTimeSig:mean 	3.6666666666667
scalar Network.dyn_peer[120] 	lookupStabilitySig:mean 	0.85084603105982
scalar Network.dyn_peer[120] 	lookupHopsSig:mean 	36
scalar Network.dyn_peer[121] 	lookupTimeSig:mean 	2.5
scalar Network.dyn_peer[121] 	lookupStabilitySig:mean 	0.52818705290556
scalar Network.dyn_peer[121] 	lookupHopsSig:mean 	24.2
scalar Network.dyn_peer[122] 	lookupTimeSig:mean 	2.0333333333333
scalar Network.dyn_peer[122] 	lookupStabilitySig:mean 	0.37100731333097
scalar Network.dyn_peer[122] 	lookupHopsSig:mean 	19.666666666667
scalar Network.dyn_peer[123] 	lookupTimeSig:mean 	1.9
scalar Network.dyn_peer[123] 	lookupStabilitySig:mean 	0.79230893962085
scalar Network.dyn_peer[123] 	lookupHopsSig:mean 	18.166666666667
scalar Network.dyn_peer[124] 	lookupTimeSig:mean 	1.975
scalar Network.dyn_peer[124] 	lookupStabilitySig:mean 	0.35972624737769
scalar Network.dyn_peer[124] 	lookupHopsSig:mean 	19
scalar Network.dyn_peer[125] 	lookupTimeSig:mean 	2.775
scalar Network.dyn_peer[125] 	lookupStabilitySig:mean 	0.74701270740479
scalar Network.dyn_peer[125] 	lookupHopsSig:mean 	27
scalar Network.dyn_peer[126] 	lookupTimeSig:mean 	1.08
scalar Network.dyn_peer[126] 	lookupStabilitySig:mean 	0.60938737168908
scalar Network.dyn_peer[126] 	lookupHopsSig:mean 	10
scalar Network.dyn_peer[127] 	lookupTimeSig:mean 	1.46
scalar Network.dyn_peer[127] 	lookupStabilitySig:mean 	0.62195522636175
scalar Network.dyn_peer[127] 	lookupHopsSig:mean 	13.8
scalar Network.dyn_peer[128] 	lookupTimeSig:mean 	1.2714285714286
scalar Network.dyn_peer[128] 	lookupStabilitySig:mean 	0.65610448297645
scalar Network.dyn_peer[128] 	lookupHopsSig:mean 	11.857142857143
scalar Network.dyn_peer[129] 	lookupTimeSig:mean 	1.4
scalar Network.dyn_peer[129] 	lookupStabilitySig:mean 	0.82372292008949
scalar Network.dyn_peer[129] 	lookupHopsSig:mean 	13.0625
scalar Network.dyn_peer[130] 	lookupTimeSig:mean 	5.45
scalar Network.dyn_peer[130] 	lookupStabilitySig:mean 	0.84292526356876
scalar Network.dyn_peer[130] 	lookupHopsSig:mean 	54
scalar Network.dyn_peer[131] 	lookupTimeSig:mean 	2.25
scalar Network.dyn_peer[131] 	lookupStabilitySig:mean 	0.57853148877621
scalar Network.dyn_peer[131] 	lookupHopsSig:mean 	21.75
scalar Network.dyn_peer[132] 	lookupTimeSig:mean 	2.56
scalar Network.dyn_peer[132] 	lookupStabilitySig:mean 	0.83104801699519
scalar Network.dyn_peer[132] 	lookupHopsSig:mean 	24.8
scalar Network.dyn_peer[133] 	lookupTimeSig:mean 	2.1333333333333
scalar Network.dyn_peer[133] 	lookupStabilitySig:mean 	0.13153420885404
scalar Network.dyn_peer[133] 	lookupHopsSig:mean 	20.666666666667
scalar Network.dyn_peer[134] 	lookupTimeSig:mean 	0.88
scalar Network.dyn_peer[134] 	lookupStabilitySig:mean 	0.35796938538551
scalar Network.dyn_peer[134] 	lookupHopsSig:mean 	8
scalar Network.dyn_peer[135] 	lookupTimeSig:mean 	1.4916666666667
scalar Network.dyn_peer[135] 	lookupStabilitySig:mean 	0.86582589161117
scalar Network.dyn_peer[135] 	lookupHopsSig:mean 	14
scalar Network.dyn_peer[136] 	lookupTimeSig:mean 	1.9
scalar Network.dyn_peer[136] 	lookupStabilitySig:mean 	0.69605517480522
scalar Network.dyn_peer[136] 	lookupHopsSig:mean 	18.25
scalar Network.dyn_peer[137] 	lookupTimeSig:mean 	1.5333333333333
scalar Network.dyn_peer[137] 	lookupStabilitySig:mean 	0.72903610600366
scalar Network.dyn_peer[137] 	lookupHopsSig:mean 	14.444444444444
scalar Network.dyn_peer[138] 	lookupTimeSig:mean 	2.1636363636364
scalar Network.dyn_peer[138] 	lookupStabilitySig:mean 	0.90425548702478
scalar Network.dyn_peer[138] 	lookupHopsSig:mean 	20.727272727273
scalar Network.dyn_peer[139] 	lookupTimeSig:mean 	1.42
scalar Network.dyn_peer[139] 	lookupStabilitySig:mean 	0.75282508693635
scalar Network.dyn_peer[139] 	lookupHopsSig:mean 	13.4
scalar Network.dyn_peer[140] 	lookupTimeSig:mean 	3.02
scalar Network.dyn_peer[140] 	lookupStabilitySig:mean 	0.77479928322136
scalar Network.dyn_peer[140] 	lookupHopsSig:mean 	29.4
scalar Network.dyn_peer[141] 	lookupTimeSig:mean 	1.78
scalar Network.dyn_peer[141] 	lookupStabilitySig:mean 	0.76954807632137
scalar Network.dyn_peer[141] 	lookupHopsSig:mean 	16.9
scalar Network.dyn_peer[142] 	lookupTimeSig:mean 	2.0230769230769
scalar Network.dyn_peer[142] 	lookupStabilitySig:mean 	0.90931411811079
scalar Network.dyn_peer[142] 	lookupHopsSig:mean 	19.307692307692
scalar Network.dyn_peer[143] 	lookupTimeSig:mean 	2
scalar Network.dyn_peer[143] 	lookupStabilitySig:mean 	0.48922198563814
scalar Network.dyn_peer[143] 	lookupHopsSig:mean 	19.2
scalar Network.dyn_peer[144] 	lookupTimeSig:mean 	2.9
scalar Network.dyn_peer[144] 	lookupStabilitySig:mean 	-0.006386861205101
scalar Network.dyn_peer[144] 	lookupHopsSig:mean 	28.5
scalar Network.dyn_peer[145] 	lookupTimeSig:mean 	1.53
scalar Network.dyn_peer[145] 	lookupStabilitySig:mean 	0.87264639474452
scalar Network.dyn_peer[145] 	lookupHopsSig:mean 	14.4
scalar Network.dyn_peer[146] 	lookupTimeSig:mean 	1.8166666666667
scalar Network.dyn_peer[146] 	lookupStabilitySig:mean 	0.78474260866642
scalar Network.dyn_peer[146] 	lookupHopsSig:mean 	17.333333333333
scalar Network.dyn_peer[147] 	lookupTimeSig:mean 	1.6888888888889
scalar Network.dyn_peer[147] 	lookupStabilitySig:mean 	0.65906592603359
scalar Network.dyn_peer[147] 	lookupHopsSig:mean 	16
scalar Network.dyn_peer[148] 	lookupTimeSig:mean 	2.375
scalar Network.dyn_peer[148] 	lookupStabilitySig:mean 	0.8497735215351
scalar Network.dyn_peer[148] 	lookupHopsSig:mean 	23
scalar Network.dyn_peer[149] 	lookupTimeSig:mean 	1.45
scalar Network.dyn_peer[149] 	lookupStabilitySig:mean 	0.82191345276078
scalar Network.dyn_peer[149] 	lookupHopsSig:mean 	13.625
scalar Network.dyn_peer[150] 	lookupTimeSig:mean 	1.36
scalar Network.dyn_peer[150] 	lookupStabilitySig:mean 	0.44252844713628
scalar Network.dyn_peer[150] 	lookupHopsSig:mean 	12.8
scalar Network.dyn_peer[151] 	lookupTimeSig:mean 	1.96
scalar Network.dyn_peer[151] 	lookupStabilitySig:mean 	0.87482818607241
scalar Network.dyn_peer[151] 	lookupHopsSig:mean 	18.8
scalar Network.dyn_peer[152] 	lookupTimeSig:mean 	2.25
scalar Network.dyn_peer[152] 	lookupStabilitySig:mean 	0.85428892890923
scalar Network.dyn_peer[152] 	lookupHopsSig:mean 	21.666666666667
scalar Network.dyn_peer[153] 	lookupTimeSig:mean 	2.275
scalar Network.dyn_peer[153] 	lookupStabilitySig:mean 	0.58027174696326
scalar Network.dyn_peer[153] 	lookupHopsSig:mean 	22
scalar Network.dyn_peer[154] 	lookupTimeSig:mean 	2.7
scalar Network.dyn_peer[154] 	lookupStabilitySig:mean 	0.50108060389757
scalar Network.dyn_peer[154] 	lookupHopsSig:mean 	26.2
scalar Network.dyn_peer[155] 	lookupTimeSig:mean 	1.94
scalar Network.dyn_peer[155] 	lookupStabilitySig:mean 	0.4976285982877
scalar Network.dyn_peer[155] 	lookupHopsSig:mean 	18.6
scalar Network.dyn_peer[156] 	lookupTimeSig:mean 	1.625
scalar Network.dyn_peer[156] 	lookupStabilitySig:mean 	0.45263640582561
scalar Network.dyn_peer[156] 	lookupHopsSig:mean 	15.5
scalar Network.dyn_peer[157] 	lookupTimeSig:mean 	2.4
scalar Network.dyn_peer[157] 	lookupStabilitySig:mean 	0.82595545426011
scalar Network.dyn_peer[157] 	lookupHopsSig:mean 	23.333333333333
scalar Network.dyn_peer[158] 	lookupTimeSig:mean 	2.3
scalar Network.dyn_peer[158] 	lookupStabilitySig:mean 	0.82906267233193
scalar Network.dyn_peer[158] 	lookupHopsSig:mean 	22.25
scalar Network.dyn_peer[159] 	lookupTimeSig:mean 	1.38
scalar Network.dyn_peer[159] 	lookupStabilitySig:mean 	0.35710159540176
scalar Network.dyn_peer[159] 	lookupHopsSig:mean 	13
scalar Network.dyn_peer[160] 	lookupTimeSig:mean 	2.5166666666667
scalar Network.dyn_peer[160] 	lookupStabilitySig:mean 	0.64374703944971
scalar Network.dyn_peer[160] 	lookupHopsSig:mean 	24.333333333333
scalar Network.dyn_peer[161] 	lookupTimeSig:mean 	2.2
scalar Network.dyn_peer[161] 	lookupStabilitySig:mean 	0.69615188799798
scalar Network.dyn_peer[161] 	lookupHopsSig:mean 	21.25
scalar Network.dyn_peer[162] 	lookupTimeSig:mean 	1.825
scalar Network.dyn_peer[162] 	lookupStabilitySig:mean 	0.59223229624331
scalar Network.dyn_peer[162] 	lookupHopsSig:mean 	17.5
scalar Network.dyn_peer[163] 	lookupTimeSig:mean 	1.7
scalar Network.dyn_peer[163] 	lookupStabilitySig:mean 	0.66895540477708
scalar Network.dyn_peer[163] 	lookupHopsSig:mean 	16.125
scalar Network.dyn_peer[164] 	lookupTimeSig:mean 	2.6
scalar Network.dyn_peer[164] 	lookupStabilitySig:mean 	0.8818511210382
scalar Network.dyn_peer[164] 	lookupHopsSig:mean 	25.2
scalar Network.dyn_peer[165] 	lookupTimeSig:mean 	1.9
scalar Network.dyn_peer[165] 	lookupStabilitySig:mean 	0.61833107719819
scalar Network.dyn_peer[165] 	lookupHopsSig:mean 	18.333333333333
scalar Network.dyn_peer[166] 	lookupTimeSig:mean 	1.6888888888889
scalar Network.dyn_peer[166] 	lookupStabilitySig:mean 	0.83513899618346
scalar Network.dyn_peer[166] 	lookupHopsSig:mean 	16
scalar Network.dyn_peer[167] 	lookupTimeSig:mean 	1.88
scalar Network.dyn_peer[167] 	lookupStabilitySig:mean 	0.69152800207958
scalar Network.dyn_peer[167] 	lookupHopsSig:mean 	17.9
scalar Network.dyn_peer[168] 	lookupTimeSig:mean 	1.925
scalar Network.dyn_peer[168] 	lookupStabilitySig:mean 	0.76520940568298
scalar Network.dyn_peer[168] 	lookupHopsSig:mean 	18.5
scalar Network.dyn_peer[169] 	lookupTimeSig:mean 	1.3
scalar Network.dyn_peer[169] 	lookupStabilitySig:mean 	0.66444926476106
scalar Network.dyn_peer[169] 	lookupHopsSig:mean 	12.25
scalar Network.dyn_peer[170] 	lookupTimeSig:mean 	1.9
scalar Network.dyn_peer[170] 	lookupStabilitySig:mean 	0.88766273262445
scalar Network.dyn_peer[170] 	lookupHopsSig:mean 	18.125
scalar Network.dyn_peer[171] 	lookupTimeSig:mean 	1.7875
scalar Network.dyn_peer[171] 	lookupStabilitySig:mean 	0.89006706036162
scalar Network.dyn_peer[171] 	lookupHopsSig:mean 	17
scalar Network.dyn_peer[172] 	lookupTimeSig:mean 	2.2
scalar Network.dyn_peer[172] 	lookupStabilitySig:mean 	0.70206261705607
scalar Network.dyn_peer[172] 	lookupHopsSig:mean 	21.25
scalar Network.dyn_peer[173] 	lookupTimeSig:mean 	3.0666666666667
scalar Network.dyn_peer[173] 	lookupStabilitySig:mean 	0.73596134533485
scalar Network.dyn_peer[173] 	lookupHopsSig:mean 	30
scalar Network.dyn_peer[174] 	lookupTimeSig:mean 	1.875
scalar Network.dyn_peer[174] 	lookupStabilitySig:mean 	0.73738608125132
scalar Network.dyn_peer[174] 	lookupHopsSig:mean 	17.875
scalar Network.dyn_peer[175] 	lookupTimeSig:mean 	1.8
scalar Network.dyn_peer[175] 	lookupStabilitySig:mean 	0.8342930401365
scalar Network.dyn_peer[175] 	lookupHopsSig:mean 	17.166666666667
scalar Network.dyn_peer[176] 	lookupTimeSig:mean 	2.0833333333333
scalar Network.dyn_peer[176] 	lookupStabilitySig:mean 	0.85315875584881
scalar Network.dyn_peer[176] 	lookupHopsSig:mean 	20
scalar Network.dyn_peer[177] 	lookupTimeSig:mean 	2.19
scalar Network.dyn_peer[177] 	lookupStabilitySig:mean 	0.96273656403646
scalar Network.dyn_peer[177] 	lookupHopsSig:mean 	21
scalar Network.dyn_peer[178] 	lookupTimeSig:mean 	1.9625
scalar Network.dyn_peer[178] 	lookupStabilitySig:mean 	0.69748543156311
scalar Network.dyn_peer[178] 	lookupHopsSig:mean 	18.75
scalar Network.dyn_peer[179] 	lookupTimeSig:mean 	1.7818181818182
scalar Network.dyn_peer[179] 	lookupStabilitySig:mean 	0.89142893949016
scalar Network.dyn_peer[179] 	lookupHopsSig:mean 	16.909090909091
scalar Network.dyn_peer[180] 	lookupTimeSig:mean 	2
scalar Network.dyn_peer[180] 	lookupStabilitySig:mean 	0.76886733286083
scalar Network.dyn_peer[180] 	lookupHopsSig:mean 	19.2
scalar Network.dyn_peer[181] 	lookupTimeSig:mean 	2.7
scalar Network.dyn_peer[181] 	lookupStabilitySig:mean 	0.39274436281994
scalar Network.dyn_peer[181] 	lookupHopsSig:mean 	26.25
scalar Network.dyn_peer[182] 	lookupTimeSig:mean 	3.175
scalar Network.dyn_peer[182] 	lookupStabilitySig:mean 	0.89890355011448
scalar Network.dyn_peer[182] 	lookupHopsSig:mean 	31
scalar Network.dyn_peer[183] 	lookupTimeSig:mean 	1.5666666666667
scalar Network.dyn_peer[183] 	lookupStabilitySig:mean 	0.58941798408826
scalar Network.dyn_peer[183] 	lookupHopsSig:mean 	15
scalar Network.dyn_peer[184] 	lookupTimeSig:mean 	1.4833333333333
scalar Network.dyn_peer[184] 	lookupStabilitySig:mean 	0.69184208319833
scalar Network.dyn_peer[184] 	lookupHopsSig:mean 	14
scalar Network.dyn_peer[185] 	lookupTimeSig:mean 	2.3666666666667
scalar Network.dyn_peer[185] 	lookupStabilitySig:mean 	0.31717683312794
scalar Network.dyn_peer[185] 	lookupHopsSig:mean 	23
scalar Network.dyn_peer[186] 	lookupTimeSig:mean 	2.5333333333333
scalar Network.dyn_peer[186] 	lookupStabilitySig:mean 	0.65946629519264
scalar Network.dyn_peer[186] 	lookupHopsSig:mean 	24.666666666667
scalar Network.dyn_peer[187] 	lookupTimeSig:mean 	1.83
scalar Network.dyn_peer[187] 	lookupStabilitySig:mean 	0.70929278787225
scalar Network.dyn_peer[187] 	lookupHopsSig:mean 	17.4
scalar Network.dyn_peer[188] 	lookupTimeSig:mean 	1.725
scalar Network.dyn_peer[188] 	lookupStabilitySig:mean 	0.7408607788384
scalar Network.dyn_peer[188] 	lookupHopsSig:mean 	16.5
scalar Network.dyn_peer[189] 	lookupTimeSig:mean 	2.42
scalar Network.dyn_peer[189] 	lookupStabilitySig:mean 	0.55327330380678
scalar Network.dyn_peer[189] 	lookupHopsSig:mean 	23.4
scalar Network.dyn_peer[190] 	lookupTimeSig:mean 	1.85
scalar Network.dyn_peer[190] 	lookupStabilitySig:mean 	0.34025735408068
scalar Network.dyn_peer[190] 	lookupHopsSig:mean 	17.75
scalar Network.dyn_peer[191] 	lookupTimeSig:mean 	1.125
scalar Network.dyn_peer[191] 	lookupStabilitySig:mean 	0.68745188694447
scalar Network.dyn_peer[191] 	lookupHopsSig:mean 	10.5
scalar Network.dyn_peer[192] 	lookupTimeSig:mean 	1.875
scalar Network.dyn_peer[192] 	lookupStabilitySig:mean 	0.29220519401133
scalar Network.dyn_peer[192] 	lookupHopsSig:mean 	18
scalar Network.dyn_peer[193] 	lookupTimeSig:mean 	2.36
scalar Network.dyn_peer[193] 	lookupStabilitySig:mean 	0.84188043698668
scalar Network.dyn_peer[193] 	lookupHopsSig:mean 	22.8
scalar Network.dyn_peer[194] 	lookupTimeSig:mean 	1.42
scalar Network.dyn_peer[194] 	lookupStabilitySig:mean 	0.70938727636822
scalar Network.dyn_peer[194] 	lookupHopsSig:mean 	13.3
scalar Network.dyn_peer[195] 	lookupTimeSig:mean 	3.0666666666667
scalar Network.dyn_peer[195] 	lookupStabilitySig:mean 	0.34984403848648
scalar Network.dyn_peer[195] 	lookupHopsSig:mean 	30
scalar Network.dyn_peer[196] 	lookupTimeSig:mean 	1.8714285714286
scalar Network.dyn_peer[196] 	lookupStabilitySig:mean 	0.57685845824225
scalar Network.dyn_peer[196] 	lookupHopsSig:mean 	17.857142857143
scalar Network.dyn_peer[197] 	lookupTimeSig:mean 	2.1857142857143
scalar Network.dyn_peer[197] 	lookupStabilitySig:mean 	0.91344937602324
scalar Network.dyn_peer[197] 	lookupHopsSig:mean 	21
scalar Network.dyn_peer[198] 	lookupTimeSig:mean 	2.175
scalar Network.dyn_peer[198] 	lookupStabilitySig:mean 	0.76091021299362
scalar Network.dyn_peer[198] 	lookupHopsSig:mean 	21
scalar Network.dyn_peer[199] 	lookupTimeSig:mean 	2.0153846153846
scalar Network.dyn_peer[199] 	lookupStabilitySig:mean 	0.90712987839316
scalar Network.dyn_peer[199] 	lookupHopsSig:mean 	19.230769230769
scalar Network.dyn_peer[200] 	lookupTimeSig:mean 	1.85
scalar Network.dyn_peer[200] 	lookupStabilitySig:mean 	0.48204210959375
scalar Network.dyn_peer[200] 	lookupHopsSig:mean 	17.75
scalar Network.dyn_peer[201] 	lookupTimeSig:mean 	1.7333333333333
scalar Network.dyn_peer[201] 	lookupStabilitySig:mean 	0.95733924819312
scalar Network.dyn_peer[201] 	lookupHopsSig:mean 	16.416666666667
scalar Network.dyn_peer[202] 	lookupTimeSig:mean 	2.3833333333333
scalar Network.dyn_peer[202] 	lookupStabilitySig:mean 	0.78038320721438
scalar Network.dyn_peer[202] 	lookupHopsSig:mean 	23
scalar Network.dyn_peer[203] 	lookupTimeSig:mean 	2.2857142857143
scalar Network.dyn_peer[203] 	lookupStabilitySig:mean 	0.66203779274864
scalar Network.dyn_peer[203] 	lookupHopsSig:mean 	22
scalar Network.dyn_peer[204] 	lookupTimeSig:mean 	1.9
scalar Network.dyn_peer[204] 	lookupStabilitySig:mean 	0.5312169243892
scalar Network.dyn_peer[204] 	lookupHopsSig:mean 	18.333333333333
scalar Network.dyn_peer[205] 	lookupTimeSig:mean 	2.1
scalar Network.dyn_peer[205] 	lookupStabilitySig:mean 	0.58042692691088
scalar Network.dyn_peer[205] 	lookupHopsSig:mean 	20.2
scalar Network.dyn_peer[206] 	lookupTimeSig:mean 	1.525
scalar Network.dyn_peer[206] 	lookupStabilitySig:mean 	0.42181372269988
scalar Network.dyn_peer[206] 	lookupHopsSig:mean 	14.5
scalar Network.dyn_peer[207] 	lookupTimeSig:mean 	2.5666666666667
scalar Network.dyn_peer[207] 	lookupStabilitySig:mean 	0.745270272096
scalar Network.dyn_peer[207] 	lookupHopsSig:mean 	25
scalar Network.dyn_peer[208] 	lookupTimeSig:mean 	1.3153846153846
scalar Network.dyn_peer[208] 	lookupStabilitySig:mean 	0.77718092117888
scalar Network.dyn_peer[208] 	lookupHopsSig:mean 	12.230769230769
scalar Network.dyn_peer[209] 	lookupTimeSig:mean 	2.66
scalar Network.dyn_peer[209] 	lookupStabilitySig:mean 	0.88000240381807
scalar Network.dyn_peer[209] 	lookupHopsSig:mean 	25.8
scalar Network.dyn_peer[210] 	lookupTimeSig:mean 	1.9
scalar Network.dyn_peer[210] 	lookupStabilitySig:mean 	0.61372548217575
scalar Network.dyn_peer[210] 	lookupHopsSig:mean 	18.333333333333
scalar Network.dyn_peer[211] 	lookupTimeSig:mean 	1.3
scalar Network.dyn_peer[211] 	lookupStabilitySig:mean 	0.79857295912436
scalar Network.dyn_peer[211] 	lookupHopsSig:mean 	12.090909090909
scalar Network.dyn_peer[212] 	lookupTimeSig:mean 	2.625
scalar Network.dyn_peer[212] 	lookupStabilitySig:mean 	0.46527695842087
scalar Network.dyn_peer[212] 	lookupHopsSig:mean 	25.5
scalar Network.dyn_peer[213] 	lookupTimeSig:mean 	1.5375
scalar Network.dyn_peer[213] 	lookupStabilitySig:mean 	0.86936454265378
scalar Network.dyn_peer[213] 	lookupHopsSig:mean 	14.5
scalar Network.dyn_peer[214] 	lookupTimeSig:mean 	2.15
scalar Network.dyn_peer[214] 	lookupStabilitySig:mean 	0.78920713812113
scalar Network.dyn_peer[214] 	lookupHopsSig:mean 	20.666666666667
scalar Network.dyn_peer[215] 	lookupTimeSig:mean 	1.8
scalar Network.dyn_peer[215] 	lookupStabilitySig:mean 	0.91023378473307
scalar Network.dyn_peer[215] 	lookupHopsSig:mean 	17.142857142857
scalar Network.dyn_peer[216] 	lookupTimeSig:mean 	1.9714285714286
scalar Network.dyn_peer[216] 	lookupStabilitySig:mean 	0.66961500394557
scalar Network.dyn_peer[216] 	lookupHopsSig:mean 	18.857142857143
scalar Network.dyn_peer[217] 	lookupTimeSig:mean 	1.7
scalar Network.dyn_peer[217] 	lookupStabilitySig:mean 	0.77006831711956
scalar Network.dyn_peer[217] 	lookupHopsSig:mean 	16.142857142857
scalar Network.dyn_peer[218] 	lookupTimeSig:mean 	1.6833333333333
scalar Network.dyn_peer[218] 	lookupStabilitySig:mean 	0.72568699624389
scalar Network.dyn_peer[218] 	lookupHopsSig:mean 	16
scalar Network.dyn_peer[219] 	lookupTimeSig:mean 	1.9
scalar Network.dyn_peer[219] 	lookupStabilitySig:mean 	0.73525668308139
scalar Network.dyn_peer[219] 	lookupHopsSig:mean 	18.166666666667
scalar Network.dyn_peer[220] 	lookupTimeSig:mean 	2.75
scalar Network.dyn_peer[220] 	lookupStabilitySig:mean 	0.82055364176631
scalar Network.dyn_peer[220] 	lookupHopsSig:mean 	26.75
scalar Network.dyn_peer[221] 	lookupTimeSig:mean 	3.95
scalar Network.dyn_peer[221] 	lookupStabilitySig:mean 	0.47023808211088
scalar Network.dyn_peer[221] 	lookupHopsSig:mean 	39
scalar Network.dyn_peer[222] 	lookupTimeSig:mean 	1.72
scalar Network.dyn_peer[222] 	lookupStabilitySig:mean 	0.92665236927569
scalar Network.dyn_peer[222] 	lookupHopsSig:mean 	16.3
scalar Network.dyn_peer[223] 	lookupTimeSig:mean 	1.7285714285714
scalar Network.dyn_peer[223] 	lookupStabilitySig:mean 	0.72238378166886
scalar Network.dyn_peer[223] 	lookupHopsSig:mean 	16.428571428571
scalar Network.dyn_peer[224] 	lookupTimeSig:mean 	2.9666666666667
scalar Network.dyn_peer[224] 	lookupStabilitySig:mean 	0.19919158021609
scalar Network.dyn_peer[224] 	lookupHopsSig:mean 	29
scalar Network.dyn_peer[225] 	lookupTimeSig:mean 	1.72
scalar Network.dyn_peer[225] 	lookupStabilitySig:mean 	0.56741451621056
scalar Network.dyn_peer[225] 	lookupHopsSig:mean 	16.4
scalar Network.dyn_peer[226] 	lookupTimeSig:mean 	2.34
scalar Network.dyn_peer[226] 	lookupStabilitySig:mean 	0.79394439980388
scalar Network.dyn_peer[226] 	lookupHopsSig:mean 	22.6
scalar Network.dyn_peer[227] 	lookupTimeSig:mean 	1.675
scalar Network.dyn_peer[227] 	lookupStabilitySig:mean 	0.84778756205924
scalar Network.dyn_peer[227] 	lookupHopsSig:mean 	15.875
scalar Network.dyn_peer[228] 	lookupTimeSig:mean 	3.14
scalar Network.dyn_peer[228] 	lookupStabilitySig:mean 	0.49890147335827
scalar Network.dyn_peer[228] 	lookupHopsSig:mean 	30.6
scalar Network.dyn_peer[229] 	lookupTimeSig:mean 	2.0571428571429
scalar Network.dyn_peer[229] 	lookupStabilitySig:mean 	0.71533453570945
scalar Network.dyn_peer[229] 	lookupHopsSig:mean 	19.714285714286
scalar Network.dyn_peer[230] 	lookupTimeSig:mean 	2
scalar Network.dyn_peer[230] 	lookupStabilitySig:mean 	0.66642193347216
scalar Network.dyn_peer[230] 	lookupHopsSig:mean 	19.2
scalar Network.dyn_peer[231] 	lookupTimeSig:mean 	1.96
scalar Network.dyn_peer[231] 	lookupStabilitySig:mean 	0.82332282308489
scalar Network.dyn_peer[231] 	lookupHopsSig:mean 	18.8
scalar Network.dyn_peer[232] 	lookupTimeSig:mean 	1.84
scalar Network.dyn_peer[232] 	lookupStabilitySig:mean 	0.40529168397188
scalar Network.dyn_peer[232] 	lookupHopsSig:mean 	17.6
scalar Network.dyn_peer[233] 	lookupTimeSig:mean 	2.24
scalar Network.dyn_peer[233] 	lookupStabilitySig:mean 	0.73589606396854
scalar Network.dyn_peer[233] 	lookupHopsSig:mean 	21.5
scalar Network.dyn_peer[234] 	lookupTimeSig:mean 	2.7
scalar Network.dyn_peer[234] 	lookupStabilitySig:mean 	-0.14583332836628
scalar Network.dyn_peer[234] 	lookupHopsSig:mean 	26.5
scalar Network.dyn_peer[235] 	lookupTimeSig:mean 	3
scalar Network.dyn_peer[235] 	lookupStabilitySig:mean 	0.50651287287474
scalar Network.dyn_peer[235] 	lookupHopsSig:mean 	29.25
scalar Network.dyn_peer[236] 	lookupTimeSig:mean 	2.55
scalar Network.dyn_peer[236] 	lookupStabilitySig:mean 	0.8601885298267
scalar Network.dyn_peer[236] 	lookupHopsSig:mean 	24.625
scalar Network.dyn_peer[237] 	lookupTimeSig:mean 	1.65
scalar Network.dyn_peer[237] 	lookupStabilitySig:mean 	0.32252516411245
scalar Network.dyn_peer[237] 	lookupHopsSig:mean 	15.75
scalar Network.dyn_peer[238] 	lookupTimeSig:mean 	1.575
scalar Network.dyn_peer[238] 	lookupStabilitySig:mean 	0.74980406300165
scalar Network.dyn_peer[238] 	lookupHopsSig:mean 	14.875
scalar Network.dyn_peer[239] 	lookupTimeSig:mean 	1.92
scalar Network.dyn_peer[239] 	lookupStabilitySig:mean 	0.77858413793147
scalar Network.dyn_peer[239] 	lookupHopsSig:mean 	18.4
scalar Network.dyn_peer[240] 	lookupTimeSig:mean 	2.2666666666667
scalar Network.dyn_peer[240] 	lookupStabilitySig:mean 	0.44559385875861
scalar Network.dyn_peer[240] 	lookupHopsSig:mean 	22
scalar Network.dyn_peer[241] 	lookupTimeSig:mean 	0.92
scalar Network.dyn_peer[241] 	lookupStabilitySig:mean 	0.45291985273361
scalar Network.dyn_peer[241] 	lookupHopsSig:mean 	8.4
scalar Network.dyn_peer[242] 	lookupTimeSig:mean 	2.2
scalar Network.dyn_peer[242] 	lookupStabilitySig:mean 	0.56234135106206
scalar Network.dyn_peer[242] 	lookupHopsSig:mean 	21.25
scalar Network.dyn_peer[243] 	lookupTimeSig:mean 	2.5285714285714
scalar Network.dyn_peer[243] 	lookupStabilitySig:mean 	0.85408886881279
scalar Network.dyn_peer[243] 	lookupHopsSig:mean 	24.428571428571
scalar Network.dyn_peer[244] 	lookupTimeSig:mean 	1.6666666666667
scalar Network.dyn_peer[244] 	lookupStabilitySig:mean 	0.21548821528753
scalar Network.dyn_peer[244] 	lookupHopsSig:mean 	16
scalar Network.dyn_peer[245] 	lookupTimeSig:mean 	2.025
scalar Network.dyn_peer[245] 	lookupStabilitySig:mean 	0.5889054518193
scalar Network.dyn_peer[245] 	lookupHopsSig:mean 	19.5
scalar Network.dyn_peer[246] 	lookupTimeSig:mean 	1.925
scalar Network.dyn_peer[246] 	lookupStabilitySig:mean 	0.79560009296983
scalar Network.dyn_peer[246] 	lookupHopsSig:mean 	18.5
scalar Network.dyn_peer[247] 	lookupTimeSig:mean 	1.225
scalar Network.dyn_peer[247] 	lookupStabilitySig:mean 	0.59924286417663
scalar Network.dyn_peer[247] 	lookupHopsSig:mean 	11.5
scalar Network.dyn_peer[248] 	lookupTimeSig:mean 	4.3
scalar Network.dyn_peer[248] 	lookupStabilitySig:mean 	0.83375746943057
scalar Network.dyn_peer[248] 	lookupHopsSig:mean 	42.333333333333
scalar Network.dyn_peer[249] 	lookupTimeSig:mean 	1.88
scalar Network.dyn_peer[249] 	lookupStabilitySig:mean 	0.69178987275809
scalar Network.dyn_peer[249] 	lookupHopsSig:mean 	18
scalar Network.dyn_peer[250] 	lookupTimeSig:mean 	2.9
scalar Network.dyn_peer[250] 	lookupStabilitySig:mean 	0.72839971880118
scalar Network.dyn_peer[250] 	lookupHopsSig:mean 	28.333333333333
scalar Network.dyn_peer[251] 	lookupTimeSig:mean 	1.5833333333333
scalar Network.dyn_peer[251] 	lookupStabilitySig:mean 	0.58128341737514
scalar Network.dyn_peer[251] 	lookupHopsSig:mean 	15
scalar Network.dyn_peer[252] 	lookupTimeSig:mean 	2.825
scalar Network.dyn_peer[252] 	lookupStabilitySig:mean 	0.78385623544455
scalar Network.dyn_peer[252] 	lookupHopsSig:mean 	27.5
scalar Network.dyn_peer[253] 	lookupTimeSig:mean 	3.35
scalar Network.dyn_peer[253] 	lookupStabilitySig:mean 	0.61014086194336
scalar Network.dyn_peer[253] 	lookupHopsSig:mean 	32.75
scalar Network.dyn_peer[254] 	lookupTimeSig:mean 	1.5166666666667
scalar Network.dyn_peer[254] 	lookupStabilitySig:mean 	0.55408806136499
scalar Network.dyn_peer[254] 	lookupHopsSig:mean 	14.333333333333
scalar Network.dyn_peer[255] 	lookupTimeSig:mean 	1.76
scalar Network.dyn_peer[255] 	lookupStabilitySig:mean 	0.79842548966408
scalar Network.dyn_peer[255] 	lookupHopsSig:mean 	16.8
scalar Network.dyn_peer[256] 	lookupTimeSig:mean 	1.94
scalar Network.dyn_peer[256] 	lookupStabilitySig:mean 	0.56774737648666
scalar Network.dyn_peer[256] 	lookupHopsSig:mean 	18.6
scalar Network.dyn_peer[257] 	lookupTimeSig:mean 	1.8375
scalar Network.dyn_peer[257] 	lookupStabilitySig:mean 	0.92512088397052
scalar Network.dyn_peer[257] 	lookupHopsSig:mean 	17.5
scalar Network.dyn_peer[258] 	lookupTimeSig:mean 	1.4125
scalar Network.dyn_peer[258] 	lookupStabilitySig:mean 	0.70146078802645
scalar Network.dyn_peer[258] 	lookupHopsSig:mean 	13.25
scalar Network.dyn_peer[259] 	lookupTimeSig:mean 	1.3333333333333
scalar Network.dyn_peer[259] 	lookupStabilitySig:mean 	0.56713259965181
scalar Network.dyn_peer[259] 	lookupHopsSig:mean 	12.5
scalar Network.dyn_peer[260] 	lookupTimeSig:mean 	1.9666666666667
scalar Network.dyn_peer[260] 	lookupStabilitySig:mean 	0.88937287653486
scalar Network.dyn_peer[260] 	lookupHopsSig:mean 	18.833333333333
scalar Network.dyn_peer[261] 	lookupTimeSig:mean 	2
scalar Network.dyn_peer[261] 	lookupStabilitySig:mean 	0.72250441182405
scalar Network.dyn_peer[261] 	lookupHopsSig:mean 	19.25
scalar Network.dyn_peer[262] 	lookupTimeSig:mean 	2.2
scalar Network.dyn_peer[262] 	lookupStabilitySig:mean 	0.013333350419998
scalar Network.dyn_peer[262] 	lookupHopsSig:mean 	21.5
scalar Network.dyn_peer[263] 	lookupTimeSig:mean 	4.25
scalar Network.dyn_peer[263] 	lookupStabilitySig:mean 	0.3292011320591
scalar Network.dyn_peer[263] 	lookupHopsSig:mean 	42
scalar Network.dyn_peer[264] 	lookupTimeSig:mean 	2.38
scalar Network.dyn_peer[264] 	lookupStabilitySig:mean 	0.76754560470581
scalar Network.dyn_peer[264] 	lookupHopsSig:mean 	23
scalar Network.dyn_peer[265] 	lookupTimeSig:mean 	2.6142857142857
scalar Network.dyn_peer[265] 	lookupStabilitySig:mean 	0.95573313999921
scalar Network.dyn_peer[265] 	lookupHopsSig:mean 	25.285714285714
scalar Network.dyn_peer[266] 	lookupTimeSig:mean 	1.3166666666667
scalar Network.dyn_peer[266] 	lookupStabilitySig:mean 	0.58023375148575
scalar Network.dyn_peer[266] 	lookupHopsSig:mean 	12.333333333333
scalar Network.dyn_peer[267] 	lookupTimeSig:mean 	1.2714285714286
scalar Network.dyn_peer[267] 	lookupStabilitySig:mean 	0.86466322333685
scalar Network.dyn_peer[267] 	lookupHopsSig:mean 	11.857142857143
scalar Network.dyn_peer[268] 	lookupTimeSig:mean 	1.8888888888889
scalar Network.dyn_peer[268] 	lookupStabilitySig:mean 	0.75870843821516
scalar Network.dyn_peer[268] 	lookupHopsSig:mean 	18
scalar Network.dyn_peer[269] 	lookupTimeSig:mean 	2.16
scalar Network.dyn_peer[269] 	lookupStabilitySig:mean 	0.84402387142181
scalar Network.dyn_peer[269] 	lookupHopsSig:mean 	20.8
scalar Network.dyn_peer[270] 	lookupTimeSig:mean 	1.66
scalar Network.dyn_peer[270] 	lookupStabilitySig:mean 	0.70205404236913
scalar Network.dyn_peer[270] 	lookupHopsSig:mean 	15.8
scalar Network.dyn_peer[271] 	lookupTimeSig:mean 	0.75
scalar Network.dyn_peer[271] 	lookupStabilitySig:mean 	0.34274194017053
scalar Network.dyn_peer[271] 	lookupHopsSig:mean 	6.75
scalar Network.dyn_peer[272] 	lookupTimeSig:mean 	2.3333333333333
scalar Network.dyn_peer[272] 	lookupStabilitySig:mean 	0.32553507884343
scalar Network.dyn_peer[272] 	lookupHopsSig:mean 	22.666666666667
scalar Network.dyn_peer[273] 	lookupTimeSig:mean 	1.2142857142857
scalar Network.dyn_peer[273] 	lookupStabilitySig:mean 	0.60699802610491
scalar Network.dyn_peer[273] 	lookupHopsSig:mean 	11.285714285714
scalar Network.dyn_peer[274] 	lookupTimeSig:mean 	1.78
scalar Network.dyn_peer[274] 	lookupStabilitySig:mean 	0.56865385621786
scalar Network.dyn_peer[274] 	lookupHopsSig:mean 	17
scalar Network.dyn_peer[275] 	lookupTimeSig:mean 	2.5
scalar Network.dyn_peer[275] 	lookupStabilitySig:mean 	0.91293544570605
scalar Network.dyn_peer[275] 	lookupHopsSig:mean 	24.166666666667
scalar Network.dyn_peer[276] 	lookupTimeSig:mean 	1.58
scalar Network.dyn_peer[276] 	lookupStabilitySig:mean 	0.7329207578674
scalar Network.dyn_peer[276] 	lookupHopsSig:mean 	15
scalar Network.dyn_peer[277] 	lookupTimeSig:mean 	3.3666666666667
scalar Network.dyn_peer[277] 	lookupStabilitySig:mean 	0.81154169390599
scalar Network.dyn_peer[277] 	lookupHopsSig:mean 	33
scalar Network.dyn_peer[278] 	lookupTimeSig:mean 	4.1
scalar Network.dyn_peer[278] 	lookupStabilitySig:mean 	0.5628698207438
scalar Network.dyn_peer[278] 	lookupHopsSig:mean 	40.5
scalar Network.dyn_peer[279] 	lookupTimeSig:mean 	2.1666666666667
scalar Network.dyn_peer[279] 	lookupStabilitySig:mean 	0.67734615442654
scalar Network.dyn_peer[279] 	lookupHopsSig:mean 	21
scalar Network.dyn_peer[280] 	lookupTimeSig:mean 	1.95
scalar Network.dyn_peer[280] 	lookupStabilitySig:mean 	0.75294425908942
scalar Network.dyn_peer[280] 	lookupHopsSig:mean 	18.625
scalar Network.dyn_peer[281] 	lookupTimeSig:mean 	3.4333333333333
scalar Network.dyn_peer[281] 	lookupStabilitySig:mean 	0.81489791100224
scalar Network.dyn_peer[281] 	lookupHopsSig:mean 	33.666666666667
scalar Network.dyn_peer[282] 	lookupTimeSig:mean 	2.34
scalar Network.dyn_peer[282] 	lookupStabilitySig:mean 	0.63781894445419
scalar Network.dyn_peer[282] 	lookupHopsSig:mean 	22.6
scalar Network.dyn_peer[283] 	lookupTimeSig:mean 	1.9857142857143
scalar Network.dyn_peer[283] 	lookupStabilitySig:mean 	0.92665389712368
scalar Network.dyn_peer[283] 	lookupHopsSig:mean 	19
scalar Network.dyn_peer[284] 	lookupTimeSig:mean 	1.84
scalar Network.dyn_peer[284] 	lookupStabilitySig:mean 	0.82191597763449
scalar Network.dyn_peer[284] 	lookupHopsSig:mean 	17.5
scalar Network.dyn_peer[285] 	lookupTimeSig:mean 	2.2666666666667
scalar Network.dyn_peer[285] 	lookupStabilitySig:mean 	0.67500875455638
scalar Network.dyn_peer[285] 	lookupHopsSig:mean 	21.833333333333
scalar Network.dyn_peer[286] 	lookupTimeSig:mean 	1.7375
scalar Network.dyn_peer[286] 	lookupStabilitySig:mean 	0.72423417679965
scalar Network.dyn_peer[286] 	lookupHopsSig:mean 	16.5
scalar Network.dyn_peer[287] 	lookupTimeSig:mean 	0.9875
scalar Network.dyn_peer[287] 	lookupStabilitySig:mean 	0.66083033452742
scalar Network.dyn_peer[287] 	lookupHopsSig:mean 	9
scalar Network.dyn_peer[288] 	lookupTimeSig:mean 	2.5142857142857
scalar Network.dyn_peer[288] 	lookupStabilitySig:mean 	0.92088272395943
scalar Network.dyn_peer[288] 	lookupHopsSig:mean 	24.285714285714
scalar Network.dyn_peer[289] 	lookupTimeSig:mean 	2.04
scalar Network.dyn_peer[289] 	lookupStabilitySig:mean 	0.60231545995921
scalar Network.dyn_peer[289] 	lookupHopsSig:mean 	19.6
scalar Network.dyn_peer[290] 	lookupTimeSig:mean 	1.7142857142857
scalar Network.dyn_peer[290] 	lookupStabilitySig:mean 	0.81865346671215
scalar Network.dyn_peer[290] 	lookupHopsSig:mean 	16.285714285714
scalar Network.dyn_peer[291] 	lookupTimeSig:mean 	1.875
scalar Network.dyn_peer[291] 	lookupStabilitySig:mean 	0.58573391381651
scalar Network.dyn_peer[291] 	lookupHopsSig:mean 	18
scalar Network.dyn_peer[292] 	lookupTimeSig:mean 	1.6222222222222
scalar Network.dyn_peer[292] 	lookupStabilitySig:mean 	0.80457137090464
scalar Network.dyn_peer[292] 	lookupHopsSig:mean 	15.333333333333
scalar Network.dyn_peer[293] 	lookupTimeSig:mean 	1.4
scalar Network.dyn_peer[293] 	lookupStabilitySig:mean 	-0.3125
scalar Network.dyn_peer[293] 	lookupHopsSig:mean 	13.5
scalar Network.dyn_peer[294] 	lookupTimeSig:mean 	2.6
scalar Network.dyn_peer[294] 	lookupStabilitySig:mean 	0.95281747670379
scalar Network.dyn_peer[294] 	lookupHopsSig:mean 	25.125
scalar Network.dyn_peer[295] 	lookupTimeSig:mean 	6
scalar Network.dyn_peer[295] 	lookupStabilitySig:mean 	0.11403295397758
scalar Network.dyn_peer[295] 	lookupHopsSig:mean 	59.5
scalar Network.dyn_peer[296] 	lookupTimeSig:mean 	3.2333333333333
scalar Network.dyn_peer[296] 	lookupStabilitySig:mean 	0.61433034141858
scalar Network.dyn_peer[296] 	lookupHopsSig:mean 	31.666666666667
scalar Network.dyn_peer[297] 	lookupTimeSig:mean 	1.66
scalar Network.dyn_peer[297] 	lookupStabilitySig:mean 	0.86345214955509
scalar Network.dyn_peer[297] 	lookupHopsSig:mean 	15.7
scalar Network.dyn_peer[298] 	lookupTimeSig:mean 	2.1571428571429
scalar Network.dyn_peer[298] 	lookupStabilitySig:mean 	0.8343756371843
scalar Network.dyn_peer[298] 	lookupHopsSig:mean 	20.714285714286
scalar Network.dyn_peer[299] 	lookupTimeSig:mean 	1.39
scalar Network.dyn_peer[299] 	lookupStabilitySig:mean 	0.86852729392704
scalar Network.dyn_peer[299] 	lookupHopsSig:mean 	13
scalar Network.dyn_peer[300] 	lookupTimeSig:mean 	1.0333333333333
scalar Network.dyn_peer[300] 	lookupStabilitySig:mean 	0.75577792385593
scalar Network.dyn_peer[300] 	lookupHopsSig:mean 	9.5
scalar Network.dyn_peer[301] 	lookupTimeSig:mean 	4
scalar Network.dyn_peer[301] 	lookupStabilitySig:mean 	0.76901518553495
scalar Network.dyn_peer[301] 	lookupHopsSig:mean 	39.333333333333
scalar Network.dyn_peer[302] 	lookupTimeSig:mean 	2.2333333333333
scalar Network.dyn_peer[302] 	lookupStabilitySig:mean 	0.81283093678455
scalar Network.dyn_peer[302] 	lookupHopsSig:mean 	21.5
scalar Network.dyn_peer[303] 	lookupTimeSig:mean 	1.7333333333333
scalar Network.dyn_peer[303] 	lookupStabilitySig:mean 	0.15823338925838
scalar Network.dyn_peer[303] 	lookupHopsSig:mean 	16.666666666667
scalar Network.dyn_peer[304] 	lookupTimeSig:mean 	1.9071428571429
scalar Network.dyn_peer[304] 	lookupStabilitySig:mean 	0.85890930555096
scalar Network.dyn_peer[304] 	lookupHopsSig:mean 	18.142857142857
scalar Network.dyn_peer[305] 	lookupTimeSig:mean 	1.8
scalar Network.dyn_peer[305] 	lookupStabilitySig:mean 	0.19174712896347
scalar Network.dyn_peer[305] 	lookupHopsSig:mean 	17.333333333333
scalar Network.dyn_peer[306] 	lookupTimeSig:mean 	1.7625
scalar Network.dyn_peer[306] 	lookupStabilitySig:mean 	0.89696568861837
scalar Network.dyn_peer[306] 	lookupHopsSig:mean 	16.75
scalar Network.dyn_peer[307] 	lookupTimeSig:mean 	1.8444444444444
scalar Network.dyn_peer[307] 	lookupStabilitySig:mean 	0.93414462916553
scalar Network.dyn_peer[307] 	lookupHopsSig:mean 	17.555555555556
scalar Network.dyn_peer[308] 	lookupTimeSig:mean 	3.8
scalar Network.dyn_peer[308] 	lookupStabilitySig:mean 	0.55728814005852
scalar Network.dyn_peer[308] 	lookupHopsSig:mean 	37.5
scalar Network.dyn_peer[309] 	lookupTimeSig:mean 	2.35
scalar Network.dyn_peer[309] 	lookupStabilitySig:mean 	0.42386271711439
scalar Network.dyn_peer[309] 	lookupHopsSig:mean 	22.75
scalar Network.dyn_peer[310] 	lookupTimeSig:mean 	2.14
scalar Network.dyn_peer[310] 	lookupStabilitySig:mean 	0.91902142819017
scalar Network.dyn_peer[310] 	lookupHopsSig:mean 	20.6
scalar Network.dyn_peer[311] 	lookupTimeSig:mean 	1.1166666666667
scalar Network.dyn_peer[311] 	lookupStabilitySig:mean 	0.53570086865996
scalar Network.dyn_peer[311] 	lookupHopsSig:mean 	10.333333333333
scalar Network.dyn_peer[312] 	lookupTimeSig:mean 	2.16
scalar Network.dyn_peer[312] 	lookupStabilitySig:mean 	0.77550063878298
scalar Network.dyn_peer[312] 	lookupHopsSig:mean 	20.8
scalar Network.dyn_peer[313] 	lookupTimeSig:mean 	2.18
scalar Network.dyn_peer[313] 	lookupStabilitySig:mean 	0.91546325311065
scalar Network.dyn_peer[313] 	lookupHopsSig:mean 	21
scalar Network.dyn_peer[314] 	lookupTimeSig:mean 	1.475
scalar Network.dyn_peer[314] 	lookupStabilitySig:mean 	0.39011955913156
scalar Network.dyn_peer[314] 	lookupHopsSig:mean 	14
scalar Network.dyn_peer[315] 	lookupTimeSig:mean 	3.35
scalar Network.dyn_peer[315] 	lookupStabilitySig:mean 	0.35324200987816
scalar Network.dyn_peer[315] 	lookupHopsSig:mean 	33
scalar Network.dyn_peer[316] 	lookupTimeSig:mean 	1.5
scalar Network.dyn_peer[316] 	lookupStabilitySig:mean 	0.22859793901443
scalar Network.dyn_peer[316] 	lookupHopsSig:mean 	14.25
scalar Network.dyn_peer[317] 	lookupTimeSig:mean 	2.9666666666667
scalar Network.dyn_peer[317] 	lookupStabilitySig:mean 	0.7105566735069
scalar Network.dyn_peer[317] 	lookupHopsSig:mean 	29
scalar Network.dyn_peer[318] 	lookupTimeSig:mean 	3.8
scalar Network.dyn_peer[318] 	lookupStabilitySig:mean 	0.43004890282949
scalar Network.dyn_peer[318] 	lookupHopsSig:mean 	37.333333333333
scalar Network.dyn_peer[319] 	lookupTimeSig:mean 	2.52
scalar Network.dyn_peer[319] 	lookupStabilitySig:mean 	0.87790702655911
scalar Network.dyn_peer[319] 	lookupHopsSig:mean 	24.4
scalar Network.dyn_peer[320] 	lookupTimeSig:mean 	3.2
scalar Network.dyn_peer[320] 	lookupStabilitySig:mean 	0.84250578284264
scalar Network.dyn_peer[320] 	lookupHopsSig:mean 	31.333333333333
scalar Network.dyn_peer[321] 	lookupTimeSig:mean 	2.125
scalar Network.dyn_peer[321] 	lookupStabilitySig:mean 	0.61081467941403
scalar Network.dyn_peer[321] 	lookupHopsSig:mean 	20.5
scalar Network.dyn_peer[322] 	lookupTimeSig:mean 	1.79
scalar Network.dyn_peer[322] 	lookupStabilitySig:mean 	0.94687878708355
scalar Network.dyn_peer[322] 	lookupHopsSig:mean 	17
scalar Network.dyn_peer[323] 	lookupTimeSig:mean 	2.3714285714286
scalar Network.dyn_peer[323] 	lookupStabilitySig:mean 	0.96023686060549
scalar Network.dyn_peer[323] 	lookupHopsSig:mean 	22.857142857143
scalar Network.dyn_peer[324] 	lookupTimeSig:mean 	2.05
scalar Network.dyn_peer[324] 	lookupStabilitySig:mean 	0.66227476578206
scalar Network.dyn_peer[324] 	lookupHopsSig:mean 	19.75
scalar Network.dyn_peer[325] 	lookupTimeSig:mean 	1.9625
scalar Network.dyn_peer[325] 	lookupStabilitySig:mean 	0.80811542656738
scalar Network.dyn_peer[325] 	lookupHopsSig:mean 	18.75
scalar Network.dyn_peer[326] 	lookupTimeSig:mean 	1.4666666666667
scalar Network.dyn_peer[326] 	lookupStabilitySig:mean 	0.69488031518025
scalar Network.dyn_peer[326] 	lookupHopsSig:mean 	13.833333333333
scalar Network.dyn_peer[327] 	lookupTimeSig:mean 	2.98
scalar Network.dyn_peer[327] 	lookupStabilitySig:mean 	0.55983611494303
scalar Network.dyn_peer[327] 	lookupHopsSig:mean 	29
scalar Network.dyn_peer[328] 	lookupTimeSig:mean 	1.85
scalar Network.dyn_peer[328] 	lookupStabilitySig:mean 	0.36647174134851
scalar Network.dyn_peer[328] 	lookupHopsSig:mean 	17.75
scalar Network.dyn_peer[329] 	lookupTimeSig:mean 	3.95
scalar Network.dyn_peer[329] 	lookupStabilitySig:mean 	0.38316852599382
scalar Network.dyn_peer[329] 	lookupHopsSig:mean 	39
scalar Network.dyn_peer[330] 	lookupTimeSig:mean 	2.5666666666667
scalar Network.dyn_peer[330] 	lookupStabilitySig:mean 	0.88082464163502
scalar Network.dyn_peer[330] 	lookupHopsSig:mean 	25
scalar Network.dyn_peer[331] 	lookupTimeSig:mean 	2.55
scalar Network.dyn_peer[331] 	lookupStabilitySig:mean 	0.7344950819388
scalar Network.dyn_peer[331] 	lookupHopsSig:mean 	24.75
scalar Network.dyn_peer[332] 	lookupTimeSig:mean 	1.3555555555556
scalar Network.dyn_peer[332] 	lookupStabilitySig:mean 	0.74205919706987
scalar Network.dyn_peer[332] 	lookupHopsSig:mean 	12.666666666667
scalar Network.dyn_peer[333] 	lookupTimeSig:mean 	2.32
scalar Network.dyn_peer[333] 	lookupStabilitySig:mean 	0.82043655887246
scalar Network.dyn_peer[333] 	lookupHopsSig:mean 	22.4
scalar Network.dyn_peer[334] 	lookupTimeSig:mean 	2.05
scalar Network.dyn_peer[334] 	lookupStabilitySig:mean 	0.64682882092893
scalar Network.dyn_peer[334] 	lookupHopsSig:mean 	19.75
scalar Network.dyn_peer[335] 	lookupTimeSig:mean 	1.88
scalar Network.dyn_peer[335] 	lookupStabilitySig:mean 	0.60366681143641
scalar Network.dyn_peer[335] 	lookupHopsSig:mean 	18
scalar Network.dyn_peer[336] 	lookupTimeSig:mean 	2.0714285714286
scalar Network.dyn_peer[336] 	lookupStabilitySig:mean 	0.65255099455161
scalar Network.dyn_peer[336] 	lookupHopsSig:mean 	19.857142857143
scalar Network.dyn_peer[337] 	lookupTimeSig:mean 	3.3
scalar Network.dyn_peer[337] 	lookupStabilitySig:mean 	0.7508647814393
scalar Network.dyn_peer[337] 	lookupHopsSig:mean 	32.5
scalar Network.dyn_peer[338] 	lookupTimeSig:mean 	1.66
scalar Network.dyn_peer[338] 	lookupStabilitySig:mean 	0.83796303831041
scalar Network.dyn_peer[338] 	lookupHopsSig:mean 	15.8
scalar Network.dyn_peer[339] 	lookupTimeSig:mean 	2.25
scalar Network.dyn_peer[339] 	lookupStabilitySig:mean 	0.85177882326146
scalar Network.dyn_peer[339] 	lookupHopsSig:mean 	21.666666666667
scalar Network.dyn_peer[340] 	lookupTimeSig:mean 	2.425
scalar Network.dyn_peer[340] 	lookupStabilitySig:mean 	0.81588138430379
scalar Network.dyn_peer[340] 	lookupHopsSig:mean 	23.5
scalar Network.dyn_peer[341] 	lookupTimeSig:mean 	1.75
scalar Network.dyn_peer[341] 	lookupStabilitySig:mean 	0.92051587125752
scalar Network.dyn_peer[341] 	lookupHopsSig:mean 	16.625
scalar Network.dyn_peer[342] 	lookupTimeSig:mean 	2.0333333333333
scalar Network.dyn_peer[342] 	lookupStabilitySig:mean 	0.32933989912271
scalar Network.dyn_peer[342] 	lookupHopsSig:mean 	19.666666666667
scalar Network.dyn_peer[343] 	lookupTimeSig:mean 	3.04
scalar Network.dyn_peer[343] 	lookupStabilitySig:mean 	0.64240958206356
scalar Network.dyn_peer[343] 	lookupHopsSig:mean 	29.6
scalar Network.dyn_peer[344] 	lookupTimeSig:mean 	1.7777777777778
scalar Network.dyn_peer[344] 	lookupStabilitySig:mean 	0.92198612484046
scalar Network.dyn_peer[344] 	lookupHopsSig:mean 	16.888888888889
scalar Network.dyn_peer[345] 	lookupTimeSig:mean 	1.25
scalar Network.dyn_peer[345] 	lookupStabilitySig:mean 	0.71934418752789
scalar Network.dyn_peer[345] 	lookupHopsSig:mean 	11.75
scalar Network.dyn_peer[346] 	lookupTimeSig:mean 	0.94285714285714
scalar Network.dyn_peer[346] 	lookupStabilitySig:mean 	0.56338889524341
scalar Network.dyn_peer[346] 	lookupHopsSig:mean 	8.5714285714286
scalar Network.dyn_peer[347] 	lookupTimeSig:mean 	1.65
scalar Network.dyn_peer[347] 	lookupStabilitySig:mean 	0.70653459336609
scalar Network.dyn_peer[347] 	lookupHopsSig:mean 	15.75
scalar Network.dyn_peer[348] 	lookupTimeSig:mean 	1.8272727272727
scalar Network.dyn_peer[348] 	lookupStabilitySig:mean 	0.95514710425315
scalar Network.dyn_peer[348] 	lookupHopsSig:mean 	17.363636363636
scalar Network.dyn_peer[349] 	lookupTimeSig:mean 	1.6272727272727
scalar Network.dyn_peer[349] 	lookupStabilitySig:mean 	0.95418649187989
scalar Network.dyn_peer[349] 	lookupHopsSig:mean 	15.363636363636
scalar Network.dyn_peer[350] 	lookupTimeSig:mean 	1.45
scalar Network.dyn_peer[350] 	lookupStabilitySig:mean 	0.81237632509631
scalar Network.dyn_peer[350] 	lookupHopsSig:mean 	13.666666666667
scalar Network.dyn_peer[351] 	lookupTimeSig:mean 	1.4
scalar Network.dyn_peer[351] 	lookupStabilitySig:mean 	0.83844915205347
scalar Network.dyn_peer[351] 	lookupHopsSig:mean 	13.142857142857
scalar Network.dyn_peer[352] 	lookupTimeSig:mean 	1.05
scalar Network.dyn_peer[352] 	lookupStabilitySig:mean 	0.1048951074481
scalar Network.dyn_peer[352] 	lookupHopsSig:mean 	10
scalar Network.dyn_peer[353] 	lookupTimeSig:mean 	1.6857142857143
scalar Network.dyn_peer[353] 	lookupStabilitySig:mean 	0.81745961599518
scalar Network.dyn_peer[353] 	lookupHopsSig:mean 	15.928571428571
scalar Network.dyn_peer[354] 	lookupTimeSig:mean 	1.9166666666667
scalar Network.dyn_peer[354] 	lookupStabilitySig:mean 	0.9061496964811
scalar Network.dyn_peer[354] 	lookupHopsSig:mean 	18.333333333333
scalar Network.dyn_peer[355] 	lookupTimeSig:mean 	2.3
scalar Network.dyn_peer[355] 	lookupStabilitySig:mean 	0.51157457381487
scalar Network.dyn_peer[355] 	lookupHopsSig:mean 	22.333333333333
scalar Network.dyn_peer[356] 	lookupTimeSig:mean 	2.5
scalar Network.dyn_peer[356] 	lookupStabilitySig:mean 	0.7478430734149
scalar Network.dyn_peer[356] 	lookupHopsSig:mean 	24.142857142857
scalar Network.dyn_peer[357] 	lookupTimeSig:mean 	2.1833333333333
scalar Network.dyn_peer[357] 	lookupStabilitySig:mean 	0.93110069617008
scalar Network.dyn_peer[357] 	lookupHopsSig:mean 	21
scalar Network.dyn_peer[358] 	lookupTimeSig:mean 	1.7375
scalar Network.dyn_peer[358] 	lookupStabilitySig:mean 	0.728979293257
scalar Network.dyn_peer[358] 	lookupHopsSig:mean 	16.5
scalar Network.dyn_peer[359] 	lookupTimeSig:mean 	1.6571428571429
scalar Network.dyn_peer[359] 	lookupStabilitySig:mean 	0.70519822263824
scalar Network.dyn_peer[359] 	lookupHopsSig:mean 	15.714285714286
scalar Network.dyn_peer[360] 	lookupTimeSig:mean 	1.9
scalar Network.dyn_peer[360] 	lookupStabilitySig:mean 	0.46390843018889
scalar Network.dyn_peer[360] 	lookupHopsSig:mean 	18.25
scalar Network.dyn_peer[361] 	lookupTimeSig:mean 	2.66
scalar Network.dyn_peer[361] 	lookupStabilitySig:mean 	0.76328941453248
scalar Network.dyn_peer[361] 	lookupHopsSig:mean 	25.8
scalar Network.dyn_peer[362] 	lookupTimeSig:mean 	1.9714285714286
scalar Network.dyn_peer[362] 	lookupStabilitySig:mean 	0.93455893812435
scalar Network.dyn_peer[362] 	lookupHopsSig:mean 	18.857142857143
scalar Network.dyn_peer[363] 	lookupTimeSig:mean 	2.0777777777778
scalar Network.dyn_peer[363] 	lookupStabilitySig:mean 	0.84274360165
scalar Network.dyn_peer[363] 	lookupHopsSig:mean 	19.888888888889
scalar Network.dyn_peer[364] 	lookupTimeSig:mean 	2.1
scalar Network.dyn_peer[364] 	lookupStabilitySig:mean 	0.55820950195193
scalar Network.dyn_peer[364] 	lookupHopsSig:mean 	20.2
scalar Network.dyn_peer[365] 	lookupTimeSig:mean 	2.725
scalar Network.dyn_peer[365] 	lookupStabilitySig:mean 	0.44830560311675
scalar Network.dyn_peer[365] 	lookupHopsSig:mean 	26.5
scalar Network.dyn_peer[366] 	lookupTimeSig:mean 	1.6166666666667
scalar Network.dyn_peer[366] 	lookupStabilitySig:mean 	0.85201320595418
scalar Network.dyn_peer[366] 	lookupHopsSig:mean 	15.333333333333
scalar Network.dyn_peer[367] 	lookupTimeSig:mean 	2.54
scalar Network.dyn_peer[367] 	lookupStabilitySig:mean 	0.92660083230585
scalar Network.dyn_peer[367] 	lookupHopsSig:mean 	24.6
scalar Network.dyn_peer[368] 	lookupTimeSig:mean 	1.825
scalar Network.dyn_peer[368] 	lookupStabilitySig:mean 	0.34763627313077
scalar Network.dyn_peer[368] 	lookupHopsSig:mean 	17.5
scalar Network.dyn_peer[369] 	lookupTimeSig:mean 	2.56
scalar Network.dyn_peer[369] 	lookupStabilitySig:mean 	0.8181934799999
scalar Network.dyn_peer[369] 	lookupHopsSig:mean 	24.8
scalar Network.dyn_peer[370] 	lookupTimeSig:mean 	1.6666666666667
scalar Network.dyn_peer[370] 	lookupStabilitySig:mean 	0.91335653257556
scalar Network.dyn_peer[370] 	lookupHopsSig:mean 	15.833333333333
scalar Network.dyn_peer[371] 	lookupTimeSig:mean 	1.1666666666667
scalar Network.dyn_peer[371] 	lookupStabilitySig:mean 	0.24280177056789
scalar Network.dyn_peer[371] 	lookupHopsSig:mean 	11
scalar Network.dyn_peer[372] 	lookupTimeSig:mean 	2.2
scalar Network.dyn_peer[372] 	lookupStabilitySig:mean 	0.52767355367541
scalar Network.dyn_peer[372] 	lookupHopsSig:mean 	21.5
scalar Network.dyn_peer[373] 	lookupTimeSig:mean 	1.9166666666667
scalar Network.dyn_peer[373] 	lookupStabilitySig:mean 	0.58653506853928
scalar Network.dyn_peer[373] 	lookupHopsSig:mean 	18.333333333333
scalar Network.dyn_peer[374] 	lookupTimeSig:mean 	2.0285714285714
scalar Network.dyn_peer[374] 	lookupStabilitySig:mean 	0.94749017262698
scalar Network.dyn_peer[374] 	lookupHopsSig:mean 	19.428571428571
scalar Network.dyn_peer[375] 	lookupTimeSig:mean 	1.6
scalar Network.dyn_peer[375] 	lookupStabilitySig:mean 	0.96406127143508
scalar Network.dyn_peer[375] 	lookupHopsSig:mean 	15.076923076923
scalar Network.dyn_peer[376] 	lookupTimeSig:mean 	1.8
scalar Network.dyn_peer[376] 	lookupStabilitySig:mean 	0.50791587028652
scalar Network.dyn_peer[376] 	lookupHopsSig:mean 	17.25
scalar Network.dyn_peer[377] 	lookupTimeSig:mean 	2.26
scalar Network.dyn_peer[377] 	lookupStabilitySig:mean 	0.89967057835311
scalar Network.dyn_peer[377] 	lookupHopsSig:mean 	21.8
scalar Network.dyn_peer[378] 	lookupTimeSig:mean 	1.8714285714286
scalar Network.dyn_peer[378] 	lookupStabilitySig:mean 	0.87989009577515
scalar Network.dyn_peer[378] 	lookupHopsSig:mean 	17.857142857143
scalar Network.dyn_peer[379] 	lookupTimeSig:mean 	1.85
scalar Network.dyn_peer[379] 	lookupStabilitySig:mean 	0.63362660072744
scalar Network.dyn_peer[379] 	lookupHopsSig:mean 	17.75
scalar Network.dyn_peer[380] 	lookupTimeSig:mean 	1.6857142857143
scalar Network.dyn_peer[380] 	lookupStabilitySig:mean 	0.86132112211947
scalar Network.dyn_peer[380] 	lookupHopsSig:mean 	16
scalar Network.dyn_peer[381] 	lookupTimeSig:mean 	2.2125
scalar Network.dyn_peer[381] 	lookupStabilitySig:mean 	0.76703927281778
scalar Network.dyn_peer[381] 	lookupHopsSig:mean 	21.25
scalar Network.dyn_peer[382] 	lookupTimeSig:mean 	1.4142857142857
scalar Network.dyn_peer[382] 	lookupStabilitySig:mean 	0.80153585757528
scalar Network.dyn_peer[382] 	lookupHopsSig:mean 	13.285714285714
scalar Network.dyn_peer[383] 	lookupTimeSig:mean 	2.1714285714286
scalar Network.dyn_peer[383] 	lookupStabilitySig:mean 	0.68285660818219
scalar Network.dyn_peer[383] 	lookupHopsSig:mean 	20.857142857143
scalar Network.dyn_peer[384] 	lookupTimeSig:mean 	2.1
scalar Network.dyn_peer[384] 	lookupStabilitySig:mean 	0.5370946964249
scalar Network.dyn_peer[384] 	lookupHopsSig:mean 	20.25
scalar Network.dyn_peer[385] 	lookupTimeSig:mean 	1.58
scalar Network.dyn_peer[385] 	lookupStabilitySig:mean 	0.84970142720267
scalar Network.dyn_peer[385] 	lookupHopsSig:mean 	14.9
scalar Network.dyn_peer[386] 	lookupTimeSig:mean 	2.3
scalar Network.dyn_peer[386] 	lookupStabilitySig:mean 	0.63000275194645
scalar Network.dyn_peer[386] 	lookupHopsSig:mean 	22.25
scalar Network.dyn_peer[387] 	lookupTimeSig:mean 	2.7
scalar Network.dyn_peer[387] 	lookupStabilitySig:mean 	0.53796674807866
scalar Network.dyn_peer[387] 	lookupHopsSig:mean 	26.333333333333
scalar Network.dyn_peer[388] 	lookupTimeSig:mean 	2.88
scalar Network.dyn_peer[388] 	lookupStabilitySig:mean 	0.75695459246635
scalar Network.dyn_peer[388] 	lookupHopsSig:mean 	28
scalar Network.dyn_peer[389] 	lookupTimeSig:mean 	3.5
scalar Network.dyn_peer[389] 	lookupStabilitySig:mean 	0.86587223410606
scalar Network.dyn_peer[389] 	lookupHopsSig:mean 	34.333333333333
scalar Network.dyn_peer[390] 	lookupTimeSig:mean 	1.775
scalar Network.dyn_peer[390] 	lookupStabilitySig:mean 	0.49250942654908
scalar Network.dyn_peer[390] 	lookupHopsSig:mean 	17
scalar Network.dyn_peer[391] 	lookupTimeSig:mean 	2.54
scalar Network.dyn_peer[391] 	lookupStabilitySig:mean 	0.90079768393189
scalar Network.dyn_peer[391] 	lookupHopsSig:mean 	24.6
scalar Network.dyn_peer[392] 	lookupTimeSig:mean 	1.725
scalar Network.dyn_peer[392] 	lookupStabilitySig:mean 	0.54910971596837
scalar Network.dyn_peer[392] 	lookupHopsSig:mean 	16.5
scalar Network.dyn_peer[393] 	lookupTimeSig:mean 	2.175
scalar Network.dyn_peer[393] 	lookupStabilitySig:mean 	0.7068438930437
scalar Network.dyn_peer[393] 	lookupHopsSig:mean 	21
scalar Network.dyn_peer[394] 	lookupTimeSig:mean 	1.6142857142857
scalar Network.dyn_peer[394] 	lookupStabilitySig:mean 	0.7301295258637
scalar Network.dyn_peer[394] 	lookupHopsSig:mean 	15.285714285714
scalar Network.dyn_peer[395] 	lookupTimeSig:mean 	2.4
scalar Network.dyn_peer[395] 	lookupStabilitySig:mean 	0.52911499664187
scalar Network.dyn_peer[395] 	lookupHopsSig:mean 	23.2
scalar Network.dyn_peer[396] 	lookupTimeSig:mean 	2.2
scalar Network.dyn_peer[396] 	lookupStabilitySig:mean 	0.39510356169194
scalar Network.dyn_peer[396] 	lookupHopsSig:mean 	21.25
scalar Network.dyn_peer[397] 	lookupTimeSig:mean 	1.9333333333333
scalar Network.dyn_peer[397] 	lookupStabilitySig:mean 	0.96382312116524
scalar Network.dyn_peer[397] 	lookupHopsSig:mean 	18.4
scalar Network.dyn_peer[398] 	lookupTimeSig:mean 	1.54
scalar Network.dyn_peer[398] 	lookupStabilitySig:mean 	0.55524753183126
scalar Network.dyn_peer[398] 	lookupHopsSig:mean 	14.6
scalar Network.dyn_peer[399] 	lookupTimeSig:mean 	1.74
scalar Network.dyn_peer[399] 	lookupStabilitySig:mean 	0.76330880373716
scalar Network.dyn_peer[399] 	lookupHopsSig:mean 	16.6
scalar Network.dyn_peer[400] 	lookupTimeSig:mean 	1.5230769230769
scalar Network.dyn_peer[400] 	lookupStabilitySig:mean 	0.9348999416778
scalar Network.dyn_peer[400] 	lookupHopsSig:mean 	14.307692307692
scalar Network.dyn_peer[401] 	lookupTimeSig:mean 	1.7444444444444
scalar Network.dyn_peer[401] 	lookupStabilitySig:mean 	0.75498687651836
scalar Network.dyn_peer[401] 	lookupHopsSig:mean 	16.555555555556
scalar Network.dyn_peer[402] 	lookupTimeSig:mean 	2.8
scalar Network.dyn_peer[402] 	lookupStabilitySig:mean 	0.85691626183689
scalar Network.dyn_peer[402] 	lookupHopsSig:mean 	27.25
scalar Network.dyn_peer[403] 	lookupTimeSig:mean 	1.4454545454545
scalar Network.dyn_peer[403] 	lookupStabilitySig:mean 	0.76813749748875
scalar Network.dyn_peer[403] 	lookupHopsSig:mean 	13.545454545455
scalar Network.dyn_peer[404] 	lookupTimeSig:mean 	1.3833333333333
scalar Network.dyn_peer[404] 	lookupStabilitySig:mean 	0.50991460929314
scalar Network.dyn_peer[404] 	lookupHopsSig:mean 	13
scalar Network.dyn_peer[405] 	lookupTimeSig:mean 	2.2285714285714
scalar Network.dyn_peer[405] 	lookupStabilitySig:mean 	0.9458997095935
scalar Network.dyn_peer[405] 	lookupHopsSig:mean 	21.428571428571
scalar Network.dyn_peer[406] 	lookupTimeSig:mean 	2.02
scalar Network.dyn_peer[406] 	lookupStabilitySig:mean 	0.71064954325557
scalar Network.dyn_peer[406] 	lookupHopsSig:mean 	19.4
scalar Network.dyn_peer[407] 	lookupTimeSig:mean 	1.5875
scalar Network.dyn_peer[407] 	lookupStabilitySig:mean 	0.89308595529292
scalar Network.dyn_peer[407] 	lookupHopsSig:mean 	15
scalar Network.dyn_peer[408] 	lookupTimeSig:mean 	2.4
scalar Network.dyn_peer[408] 	lookupStabilitySig:mean 	0.29923350736499
scalar Network.dyn_peer[408] 	lookupHopsSig:mean 	23.333333333333
scalar Network.dyn_peer[409] 	lookupTimeSig:mean 	2.4
scalar Network.dyn_peer[409] 	lookupStabilitySig:mean 	0.93089828485002
scalar Network.dyn_peer[409] 	lookupHopsSig:mean 	23.166666666667
scalar Network.dyn_peer[410] 	lookupTimeSig:mean 	3.1
scalar Network.dyn_peer[410] 	lookupStabilitySig:mean 	0.7000327296555
scalar Network.dyn_peer[410] 	lookupHopsSig:mean 	30.333333333333
scalar Network.dyn_peer[411] 	lookupTimeSig:mean 	1.6466666666667
scalar Network.dyn_peer[411] 	lookupStabilitySig:mean 	0.96881418209523
scalar Network.dyn_peer[411] 	lookupHopsSig:mean 	15.533333333333
scalar Network.dyn_peer[412] 	lookupTimeSig:mean 	1.625
scalar Network.dyn_peer[412] 	lookupStabilitySig:mean 	0.68936792365275
scalar Network.dyn_peer[412] 	lookupHopsSig:mean 	15.375
scalar Network.dyn_peer[413] 	lookupTimeSig:mean 	2.7333333333333
scalar Network.dyn_peer[413] 	lookupStabilitySig:mean 	0.3300787905852
scalar Network.dyn_peer[413] 	lookupHopsSig:mean 	26.666666666667
scalar Network.dyn_peer[414] 	lookupTimeSig:mean 	1.525
scalar Network.dyn_peer[414] 	lookupStabilitySig:mean 	0.97409962044912
scalar Network.dyn_peer[414] 	lookupHopsSig:mean 	14.333333333333
scalar Network.dyn_peer[415] 	lookupTimeSig:mean 	1.36
scalar Network.dyn_peer[415] 	lookupStabilitySig:mean 	0.52268533855677
scalar Network.dyn_peer[415] 	lookupHopsSig:mean 	12.8
scalar Network.dyn_peer[416] 	lookupTimeSig:mean 	1.7666666666667
scalar Network.dyn_peer[416] 	lookupStabilitySig:mean 	0.62555169065793
scalar Network.dyn_peer[416] 	lookupHopsSig:mean 	17
scalar Network.dyn_peer[417] 	lookupTimeSig:mean 	1.88
scalar Network.dyn_peer[417] 	lookupStabilitySig:mean 	0.60228840485215
scalar Network.dyn_peer[417] 	lookupHopsSig:mean 	18
scalar Network.dyn_peer[418] 	lookupTimeSig:mean 	2.2666666666667
scalar Network.dyn_peer[418] 	lookupStabilitySig:mean 	0.22555410861969
scalar Network.dyn_peer[418] 	lookupHopsSig:mean 	22
scalar Network.dyn_peer[419] 	lookupTimeSig:mean 	1.6533333333333
scalar Network.dyn_peer[419] 	lookupStabilitySig:mean 	0.93443181375042
scalar Network.dyn_peer[419] 	lookupHopsSig:mean 	15.6
scalar Network.dyn_peer[420] 	lookupTimeSig:mean 	1.3428571428571
scalar Network.dyn_peer[420] 	lookupStabilitySig:mean 	0.66782543435693
scalar Network.dyn_peer[420] 	lookupHopsSig:mean 	12.571428571429
scalar Network.dyn_peer[421] 	lookupTimeSig:mean 	3.5
scalar Network.dyn_peer[421] 	lookupStabilitySig:mean 	0.25613638261954
scalar Network.dyn_peer[421] 	lookupHopsSig:mean 	34.333333333333
scalar Network.dyn_peer[422] 	lookupTimeSig:mean 	2.5166666666667
scalar Network.dyn_peer[422] 	lookupStabilitySig:mean 	0.91095564917972
scalar Network.dyn_peer[422] 	lookupHopsSig:mean 	24.333333333333
scalar Network.dyn_peer[423] 	lookupTimeSig:mean 	2.8
scalar Network.dyn_peer[423] 	lookupStabilitySig:mean 	0.88905556052923
[...]
scalar Network.dyn_peer[894] 	lookupHopsSig:mean 	11.875
scalar Network.dyn_peer[895] 	lookupTimeSig:mean 	2.2
scalar Network.dyn_peer[895] 	lookupStabilitySig:mean 	0.69040848563115
scalar Network.dyn_peer[895] 	lookupHopsSig:mean 	21.333333333333
scalar Network.dyn_peer[896] 	lookupTimeSig:mean 	1.2466666666667
scalar Network.dyn_peer[896] 	lookupStabilitySig:mean 	0.95737652356426
scalar Network.dyn_peer[896] 	lookupHopsSig:mean 	11.533333333333
scalar Network.dyn_peer[897] 	lookupTimeSig:mean 	3.26
scalar Network.dyn_peer[897] 	lookupStabilitySig:mean 	0.89246567115188
scalar Network.dyn_peer[897] 	lookupHopsSig:mean 	31.8
scalar Network.dyn_peer[898] 	lookupTimeSig:mean 	1.3333333333333
scalar Network.dyn_peer[898] 	lookupStabilitySig:mean 	0.47828894356887
scalar Network.dyn_peer[898] 	lookupHopsSig:mean 	12.666666666667
scalar Network.dyn_peer[899] 	lookupTimeSig:mean 	1.56
scalar Network.dyn_peer[899] 	lookupStabilitySig:mean 	0.67684636041522
scalar Network.dyn_peer[899] 	lookupHopsSig:mean 	14.8
scalar Network.dyn_peer[900] 	lookupTimeSig:mean 	1.8166666666667
scalar Network.dyn_peer[900] 	lookupStabilitySig:mean 	0.81425054961195
scalar Network.dyn_peer[900] 	lookupHopsSig:mean 	17.333333333333
scalar Network.dyn_peer[901] 	lookupTimeSig:mean 	1.4636363636364
scalar Network.dyn_peer[901] 	lookupStabilitySig:mean 	0.96046448799528
scalar Network.dyn_peer[901] 	lookupHopsSig:mean 	13.727272727273
scalar Network.dyn_peer[902] 	lookupTimeSig:mean 	1.5
scalar Network.dyn_peer[902] 	lookupStabilitySig:mean 	0.96637731797195
scalar Network.dyn_peer[902] 	lookupHopsSig:mean 	14.071428571429
scalar Network.dyn_peer[903] 	lookupTimeSig:mean 	1.6166666666667
scalar Network.dyn_peer[903] 	lookupStabilitySig:mean 	0.74516115989536
scalar Network.dyn_peer[903] 	lookupHopsSig:mean 	15.333333333333
scalar Network.dyn_peer[904] 	lookupTimeSig:mean 	1.4
scalar Network.dyn_peer[904] 	lookupStabilitySig:mean 	0.54614648129791
scalar Network.dyn_peer[904] 	lookupHopsSig:mean 	13.25
scalar Network.dyn_peer[905] 	lookupTimeSig:mean 	1.4285714285714
scalar Network.dyn_peer[905] 	lookupStabilitySig:mean 	0.85525677842088
scalar Network.dyn_peer[905] 	lookupHopsSig:mean 	13.357142857143
scalar Network.dyn_peer[906] 	lookupTimeSig:mean 	1.5923076923077
scalar Network.dyn_peer[906] 	lookupStabilitySig:mean 	0.96585898609975
scalar Network.dyn_peer[906] 	lookupHopsSig:mean 	15
scalar Network.dyn_peer[907] 	lookupTimeSig:mean 	1.7
scalar Network.dyn_peer[907] 	lookupStabilitySig:mean 	0.27657933533192
scalar Network.dyn_peer[907] 	lookupHopsSig:mean 	16.5
scalar Network.dyn_peer[908] 	lookupTimeSig:mean 	1.4375
scalar Network.dyn_peer[908] 	lookupStabilitySig:mean 	0.89394608756993
scalar Network.dyn_peer[908] 	lookupHopsSig:mean 	13.5
scalar Network.dyn_peer[909] 	lookupTimeSig:mean 	1.34
scalar Network.dyn_peer[909] 	lookupStabilitySig:mean 	0.7411651853472
scalar Network.dyn_peer[909] 	lookupHopsSig:mean 	12.6
scalar Network.dyn_peer[910] 	lookupTimeSig:mean 	2.1333333333333
scalar Network.dyn_peer[910] 	lookupStabilitySig:mean 	0.82238370707879
scalar Network.dyn_peer[910] 	lookupHopsSig:mean 	20.5
scalar Network.dyn_peer[911] 	lookupTimeSig:mean 	3.025
scalar Network.dyn_peer[911] 	lookupStabilitySig:mean 	0.53605054691434
scalar Network.dyn_peer[911] 	lookupHopsSig:mean 	29.5
scalar Network.dyn_peer[912] 	lookupTimeSig:mean 	1.9833333333333
scalar Network.dyn_peer[912] 	lookupStabilitySig:mean 	0.74676429263006
scalar Network.dyn_peer[912] 	lookupHopsSig:mean 	19
scalar Network.dyn_peer[913] 	lookupTimeSig:mean 	2.8
scalar Network.dyn_peer[913] 	lookupStabilitySig:mean 	0.84559405334294
scalar Network.dyn_peer[913] 	lookupHopsSig:mean 	27.2
scalar Network.dyn_peer[914] 	lookupTimeSig:mean 	2.375
scalar Network.dyn_peer[914] 	lookupStabilitySig:mean 	0.71376727987081
scalar Network.dyn_peer[914] 	lookupHopsSig:mean 	23
scalar Network.dyn_peer[915] 	lookupTimeSig:mean 	2.3
scalar Network.dyn_peer[915] 	lookupStabilitySig:mean 	0.89118220843375
scalar Network.dyn_peer[915] 	lookupHopsSig:mean 	22.2
scalar Network.dyn_peer[916] 	lookupTimeSig:mean 	1.2
scalar Network.dyn_peer[916] 	lookupStabilitySig:mean 	0.8553057446455
scalar Network.dyn_peer[916] 	lookupHopsSig:mean 	11.111111111111
scalar Network.dyn_peer[917] 	lookupTimeSig:mean 	2.625
scalar Network.dyn_peer[917] 	lookupStabilitySig:mean 	0.93155990308151
scalar Network.dyn_peer[917] 	lookupHopsSig:mean 	25.375
scalar Network.dyn_peer[918] 	lookupTimeSig:mean 	1.5111111111111
scalar Network.dyn_peer[918] 	lookupStabilitySig:mean 	0.92643128770093
scalar Network.dyn_peer[918] 	lookupHopsSig:mean 	14.222222222222
scalar Network.dyn_peer[919] 	lookupTimeSig:mean 	2.7571428571429
scalar Network.dyn_peer[919] 	lookupStabilitySig:mean 	0.95459344477526
scalar Network.dyn_peer[919] 	lookupHopsSig:mean 	26.714285714286
scalar Network.dyn_peer[920] 	lookupTimeSig:mean 	1.3666666666667
scalar Network.dyn_peer[920] 	lookupStabilitySig:mean 	0.83131105732173
scalar Network.dyn_peer[920] 	lookupHopsSig:mean 	12.833333333333
scalar Network.dyn_peer[921] 	lookupTimeSig:mean 	1.7333333333333
scalar Network.dyn_peer[921] 	lookupStabilitySig:mean 	0.46045061945915
scalar Network.dyn_peer[921] 	lookupHopsSig:mean 	16.666666666667
scalar Network.dyn_peer[922] 	lookupTimeSig:mean 	1.675
scalar Network.dyn_peer[922] 	lookupStabilitySig:mean 	0.91456813599992
scalar Network.dyn_peer[922] 	lookupHopsSig:mean 	15.833333333333
scalar Network.dyn_peer[923] 	lookupTimeSig:mean 	3.3666666666667
scalar Network.dyn_peer[923] 	lookupStabilitySig:mean 	0.68864257633686
scalar Network.dyn_peer[923] 	lookupHopsSig:mean 	33
scalar Network.dyn_peer[924] 	lookupTimeSig:mean 	1.33
scalar Network.dyn_peer[924] 	lookupStabilitySig:mean 	0.91302556274459
scalar Network.dyn_peer[924] 	lookupHopsSig:mean 	12.4
scalar Network.dyn_peer[925] 	lookupTimeSig:mean 	1.59
scalar Network.dyn_peer[925] 	lookupStabilitySig:mean 	0.93977655479684
scalar Network.dyn_peer[925] 	lookupHopsSig:mean 	15
scalar Network.dyn_peer[926] 	lookupTimeSig:mean 	1.625
scalar Network.dyn_peer[926] 	lookupStabilitySig:mean 	0.87024853448384
scalar Network.dyn_peer[926] 	lookupHopsSig:mean 	15.375
scalar Network.dyn_peer[927] 	lookupTimeSig:mean 	1.5
scalar Network.dyn_peer[927] 	lookupStabilitySig:mean 	0.58484328817576
scalar Network.dyn_peer[927] 	lookupHopsSig:mean 	14.25
scalar Network.dyn_peer[928] 	lookupTimeSig:mean 	1.79
scalar Network.dyn_peer[928] 	lookupStabilitySig:mean 	0.9588213095325
scalar Network.dyn_peer[928] 	lookupHopsSig:mean 	17
scalar Network.dyn_peer[929] 	lookupTimeSig:mean 	1.8166666666667
scalar Network.dyn_peer[929] 	lookupStabilitySig:mean 	0.9330249443495
scalar Network.dyn_peer[929] 	lookupHopsSig:mean 	17.25
scalar Network.dyn_peer[930] 	lookupTimeSig:mean 	1.35
scalar Network.dyn_peer[930] 	lookupStabilitySig:mean 	0.93176732113352
scalar Network.dyn_peer[930] 	lookupHopsSig:mean 	12.583333333333
scalar Network.dyn_peer[931] 	lookupTimeSig:mean 	1.7125
scalar Network.dyn_peer[931] 	lookupStabilitySig:mean 	0.86645805253647
scalar Network.dyn_peer[931] 	lookupHopsSig:mean 	16.25
scalar Network.dyn_peer[932] 	lookupTimeSig:mean 	1.01
scalar Network.dyn_peer[932] 	lookupStabilitySig:mean 	0.87632333339425
scalar Network.dyn_peer[932] 	lookupHopsSig:mean 	9.2
scalar Network.dyn_peer[933] 	lookupTimeSig:mean 	2.475
scalar Network.dyn_peer[933] 	lookupStabilitySig:mean 	0.87338205520064
scalar Network.dyn_peer[933] 	lookupHopsSig:mean 	24
scalar Network.dyn_peer[934] 	lookupTimeSig:mean 	1.9333333333333
scalar Network.dyn_peer[934] 	lookupStabilitySig:mean 	0.91743328562006
scalar Network.dyn_peer[934] 	lookupHopsSig:mean 	18.444444444444
scalar Network.dyn_peer[935] 	lookupTimeSig:mean 	2.85
scalar Network.dyn_peer[935] 	lookupStabilitySig:mean 	0.33626586943865
scalar Network.dyn_peer[935] 	lookupHopsSig:mean 	28
scalar Network.dyn_peer[936] 	lookupTimeSig:mean 	2.3333333333333
scalar Network.dyn_peer[936] 	lookupStabilitySig:mean 	0.89517138712108
scalar Network.dyn_peer[936] 	lookupHopsSig:mean 	22.5
scalar Network.dyn_peer[937] 	lookupTimeSig:mean 	1.425
scalar Network.dyn_peer[937] 	lookupStabilitySig:mean 	0.66905036289245
scalar Network.dyn_peer[937] 	lookupHopsSig:mean 	13.5
scalar Network.dyn_peer[938] 	lookupTimeSig:mean 	1.2285714285714
scalar Network.dyn_peer[938] 	lookupStabilitySig:mean 	0.73020745281662
scalar Network.dyn_peer[938] 	lookupHopsSig:mean 	11.428571428571
scalar Network.dyn_peer[939] 	lookupTimeSig:mean 	1.2333333333333
scalar Network.dyn_peer[939] 	lookupStabilitySig:mean 	0.7643987974152
scalar Network.dyn_peer[939] 	lookupHopsSig:mean 	11.5
scalar Network.dyn_peer[940] 	lookupTimeSig:mean 	2.25
scalar Network.dyn_peer[940] 	lookupStabilitySig:mean 	0.23888888955116
scalar Network.dyn_peer[940] 	lookupHopsSig:mean 	22
scalar Network.dyn_peer[941] 	lookupTimeSig:mean 	1.475
scalar Network.dyn_peer[941] 	lookupStabilitySig:mean 	0.80575600807788
scalar Network.dyn_peer[941] 	lookupHopsSig:mean 	13.875
scalar Network.dyn_peer[942] 	lookupTimeSig:mean 	2
scalar Network.dyn_peer[942] 	lookupStabilitySig:mean 	0.63957800902426
scalar Network.dyn_peer[942] 	lookupHopsSig:mean 	19.25
scalar Network.dyn_peer[943] 	lookupTimeSig:mean 	2.575
scalar Network.dyn_peer[943] 	lookupStabilitySig:mean 	0.89630416408181
scalar Network.dyn_peer[943] 	lookupHopsSig:mean 	25
scalar Network.dyn_peer[944] 	lookupTimeSig:mean 	2.4
scalar Network.dyn_peer[944] 	lookupStabilitySig:mean 	0.80658158287406
scalar Network.dyn_peer[944] 	lookupHopsSig:mean 	23.333333333333
scalar Network.dyn_peer[945] 	lookupTimeSig:mean 	2.55
scalar Network.dyn_peer[945] 	lookupStabilitySig:mean 	0.88004660606384
scalar Network.dyn_peer[945] 	lookupHopsSig:mean 	24.75
scalar Network.dyn_peer[946] 	lookupTimeSig:mean 	1.05
scalar Network.dyn_peer[946] 	lookupStabilitySig:mean 	0.59946449287236
scalar Network.dyn_peer[946] 	lookupHopsSig:mean 	9.75
scalar Network.dyn_peer[947] 	lookupTimeSig:mean 	2.08
scalar Network.dyn_peer[947] 	lookupStabilitySig:mean 	0.74545439705253
scalar Network.dyn_peer[947] 	lookupHopsSig:mean 	20
scalar Network.dyn_peer[948] 	lookupTimeSig:mean 	4.2
scalar Network.dyn_peer[948] 	lookupStabilitySig:mean 	0.91193451111515
scalar Network.dyn_peer[948] 	lookupHopsSig:mean 	41.333333333333
scalar Network.dyn_peer[949] 	lookupTimeSig:mean 	1.99
scalar Network.dyn_peer[949] 	lookupStabilitySig:mean 	0.95448716226965
scalar Network.dyn_peer[949] 	lookupHopsSig:mean 	19
scalar Network.dyn_peer[950] 	lookupTimeSig:mean 	1.675
scalar Network.dyn_peer[950] 	lookupStabilitySig:mean 	0.87237675301731
scalar Network.dyn_peer[950] 	lookupHopsSig:mean 	15.875
scalar Network.dyn_peer[951] 	lookupTimeSig:mean 	2.76
scalar Network.dyn_peer[951] 	lookupStabilitySig:mean 	0.89562443457544
scalar Network.dyn_peer[951] 	lookupHopsSig:mean 	26.8
scalar Network.dyn_peer[952] 	lookupTimeSig:mean 	2.15
scalar Network.dyn_peer[952] 	lookupStabilitySig:mean 	0.89843317416186
scalar Network.dyn_peer[952] 	lookupHopsSig:mean 	20.666666666667
scalar Network.dyn_peer[953] 	lookupTimeSig:mean 	1.7857142857143
scalar Network.dyn_peer[953] 	lookupStabilitySig:mean 	0.77257957282875
scalar Network.dyn_peer[953] 	lookupHopsSig:mean 	17
scalar Network.dyn_peer[954] 	lookupTimeSig:mean 	1.32
scalar Network.dyn_peer[954] 	lookupStabilitySig:mean 	0.92297926517203
scalar Network.dyn_peer[954] 	lookupHopsSig:mean 	12.3
scalar Network.dyn_peer[955] 	lookupTimeSig:mean 	1.55
scalar Network.dyn_peer[955] 	lookupStabilitySig:mean 	0.68432679648201
scalar Network.dyn_peer[955] 	lookupHopsSig:mean 	14.666666666667
scalar Network.dyn_peer[956] 	lookupTimeSig:mean 	1.625
scalar Network.dyn_peer[956] 	lookupStabilitySig:mean 	0.57720316760242
scalar Network.dyn_peer[956] 	lookupHopsSig:mean 	15.5
scalar Network.dyn_peer[957] 	lookupTimeSig:mean 	2.15
scalar Network.dyn_peer[957] 	lookupStabilitySig:mean 	0.75665350165218
scalar Network.dyn_peer[957] 	lookupHopsSig:mean 	20.75
scalar Network.dyn_peer[958] 	lookupTimeSig:mean 	1.86
scalar Network.dyn_peer[958] 	lookupStabilitySig:mean 	0.87956017553806
scalar Network.dyn_peer[958] 	lookupHopsSig:mean 	17.8
scalar Network.dyn_peer[959] 	lookupTimeSig:mean 	4.8
scalar Network.dyn_peer[959] 	lookupStabilitySig:mean 	0.35978306084871
scalar Network.dyn_peer[959] 	lookupHopsSig:mean 	47.5
scalar Network.dyn_peer[960] 	lookupTimeSig:mean 	2.6833333333333
scalar Network.dyn_peer[960] 	lookupStabilitySig:mean 	0.94634504600738
scalar Network.dyn_peer[960] 	lookupHopsSig:mean 	26
scalar Network.dyn_peer[961] 	lookupTimeSig:mean 	1.85
scalar Network.dyn_peer[961] 	lookupStabilitySig:mean 	0.64595883805305
scalar Network.dyn_peer[961] 	lookupHopsSig:mean 	17.75
scalar Network.dyn_peer[962] 	lookupTimeSig:mean 	2.7
scalar Network.dyn_peer[962] 	lookupStabilitySig:mean 	0.85381907764822
scalar Network.dyn_peer[962] 	lookupHopsSig:mean 	26.2
scalar Network.dyn_peer[963] 	lookupTimeSig:mean 	1.675
scalar Network.dyn_peer[963] 	lookupStabilitySig:mean 	0.88813492847839
scalar Network.dyn_peer[963] 	lookupHopsSig:mean 	15.875
scalar Network.dyn_peer[964] 	lookupTimeSig:mean 	2.875
scalar Network.dyn_peer[964] 	lookupStabilitySig:mean 	0.86981363967061
scalar Network.dyn_peer[964] 	lookupHopsSig:mean 	28
scalar Network.dyn_peer[965] 	lookupTimeSig:mean 	2.3142857142857
scalar Network.dyn_peer[965] 	lookupStabilitySig:mean 	0.80016436979973
scalar Network.dyn_peer[965] 	lookupHopsSig:mean 	22.285714285714
scalar Network.dyn_peer[966] 	lookupTimeSig:mean 	3.0333333333333
scalar Network.dyn_peer[966] 	lookupStabilitySig:mean 	0.51557515561581
scalar Network.dyn_peer[966] 	lookupHopsSig:mean 	29.666666666667
scalar Network.dyn_peer[967] 	lookupTimeSig:mean 	2.325
scalar Network.dyn_peer[967] 	lookupStabilitySig:mean 	0.94601199775934
scalar Network.dyn_peer[967] 	lookupHopsSig:mean 	22.375
scalar Network.dyn_peer[968] 	lookupTimeSig:mean 	1.64
scalar Network.dyn_peer[968] 	lookupStabilitySig:mean 	0.68969396464527
scalar Network.dyn_peer[968] 	lookupHopsSig:mean 	15.6
scalar Network.dyn_peer[969] 	lookupTimeSig:mean 	1.425
scalar Network.dyn_peer[969] 	lookupStabilitySig:mean 	0.60636533237994
scalar Network.dyn_peer[969] 	lookupHopsSig:mean 	13.5
scalar Network.dyn_peer[970] 	lookupTimeSig:mean 	2.05
scalar Network.dyn_peer[970] 	lookupStabilitySig:mean 	0.66829316318035
scalar Network.dyn_peer[970] 	lookupHopsSig:mean 	19.75
scalar Network.dyn_peer[971] 	lookupTimeSig:mean 	1.675
scalar Network.dyn_peer[971] 	lookupStabilitySig:mean 	0.93116399878636
scalar Network.dyn_peer[971] 	lookupHopsSig:mean 	15.833333333333
scalar Network.dyn_peer[972] 	lookupTimeSig:mean 	4.95
scalar Network.dyn_peer[972] 	lookupStabilitySig:mean 	0.85713100619614
scalar Network.dyn_peer[972] 	lookupHopsSig:mean 	49
scalar Network.dyn_peer[973] 	lookupTimeSig:mean 	2.1
scalar Network.dyn_peer[973] 	lookupStabilitySig:mean 	0.72504539228976
scalar Network.dyn_peer[973] 	lookupHopsSig:mean 	20.25
scalar Network.dyn_peer[974] 	lookupTimeSig:mean 	2.2
scalar Network.dyn_peer[974] 	lookupStabilitySig:mean 	0.58778186887503
scalar Network.dyn_peer[974] 	lookupHopsSig:mean 	21.5
scalar Network.dyn_peer[975] 	lookupTimeSig:mean 	1.8
scalar Network.dyn_peer[975] 	lookupStabilitySig:mean 	0.83135441765189
scalar Network.dyn_peer[975] 	lookupHopsSig:mean 	17.2
scalar Network.dyn_peer[976] 	lookupTimeSig:mean 	2.3666666666667
scalar Network.dyn_peer[976] 	lookupStabilitySig:mean 	0.96150055708778
scalar Network.dyn_peer[976] 	lookupHopsSig:mean 	22.777777777778
scalar Network.dyn_peer[977] 	lookupTimeSig:mean 	1.9666666666667
scalar Network.dyn_peer[977] 	lookupStabilitySig:mean 	0.47584870954355
scalar Network.dyn_peer[977] 	lookupHopsSig:mean 	19
scalar Network.dyn_peer[978] 	lookupTimeSig:mean 	1.2833333333333
scalar Network.dyn_peer[978] 	lookupStabilitySig:mean 	0.80816916748881
scalar Network.dyn_peer[978] 	lookupHopsSig:mean 	12
scalar Network.dyn_peer[979] 	lookupTimeSig:mean 	1.7571428571429
scalar Network.dyn_peer[979] 	lookupStabilitySig:mean 	0.82995221524366
scalar Network.dyn_peer[979] 	lookupHopsSig:mean 	16.714285714286
scalar Network.dyn_peer[980] 	lookupTimeSig:mean 	1.7076923076923
scalar Network.dyn_peer[980] 	lookupStabilitySig:mean 	0.86736452737107
scalar Network.dyn_peer[980] 	lookupHopsSig:mean 	16.153846153846
scalar Network.dyn_peer[981] 	lookupTimeSig:mean 	2.4
scalar Network.dyn_peer[981] 	lookupStabilitySig:mean 	0.92030927315354
scalar Network.dyn_peer[981] 	lookupHopsSig:mean 	23.2
scalar Network.dyn_peer[982] 	lookupTimeSig:mean 	1.7615384615385
scalar Network.dyn_peer[982] 	lookupStabilitySig:mean 	0.94304463163448
scalar Network.dyn_peer[982] 	lookupHopsSig:mean 	16.692307692308
scalar Network.dyn_peer[983] 	lookupTimeSig:mean 	2.02
scalar Network.dyn_peer[983] 	lookupStabilitySig:mean 	0.67557797804475
scalar Network.dyn_peer[983] 	lookupHopsSig:mean 	19.4
scalar Network.dyn_peer[984] 	lookupTimeSig:mean 	3.225
scalar Network.dyn_peer[984] 	lookupStabilitySig:mean 	0.87051200307906
scalar Network.dyn_peer[984] 	lookupHopsSig:mean 	31.5
scalar Network.dyn_peer[985] 	lookupTimeSig:mean 	1.75
scalar Network.dyn_peer[985] 	lookupStabilitySig:mean 	0.87394840887282
scalar Network.dyn_peer[985] 	lookupHopsSig:mean 	16.625
scalar Network.dyn_peer[986] 	lookupTimeSig:mean 	1.9857142857143
scalar Network.dyn_peer[986] 	lookupStabilitySig:mean 	0.95448152002479
scalar Network.dyn_peer[986] 	lookupHopsSig:mean 	19
scalar Network.dyn_peer[987] 	lookupTimeSig:mean 	2.175
scalar Network.dyn_peer[987] 	lookupStabilitySig:mean 	0.66645906399935
scalar Network.dyn_peer[987] 	lookupHopsSig:mean 	21
scalar Network.dyn_peer[988] 	lookupTimeSig:mean 	1.9833333333333
scalar Network.dyn_peer[988] 	lookupStabilitySig:mean 	0.88152407327046
scalar Network.dyn_peer[988] 	lookupHopsSig:mean 	19
scalar Network.dyn_peer[989] 	lookupTimeSig:mean 	1.125
scalar Network.dyn_peer[989] 	lookupStabilitySig:mean 	0.9143833857961
scalar Network.dyn_peer[989] 	lookupHopsSig:mean 	10.375
scalar Network.dyn_peer[990] 	lookupTimeSig:mean 	2.525
scalar Network.dyn_peer[990] 	lookupStabilitySig:mean 	0.96111881089746
scalar Network.dyn_peer[990] 	lookupHopsSig:mean 	24.375
scalar Network.dyn_peer[991] 	lookupTimeSig:mean 	2.975
scalar Network.dyn_peer[991] 	lookupStabilitySig:mean 	0.90586615679786
scalar Network.dyn_peer[991] 	lookupHopsSig:mean 	29
scalar Network.dyn_peer[992] 	lookupTimeSig:mean 	1.4444444444444
scalar Network.dyn_peer[992] 	lookupStabilitySig:mean 	0.83881568577554
scalar Network.dyn_peer[992] 	lookupHopsSig:mean 	13.555555555556
scalar Network.dyn_peer[993] 	lookupTimeSig:mean 	1.8
scalar Network.dyn_peer[993] 	lookupStabilitySig:mean 	0.88886595983058
scalar Network.dyn_peer[993] 	lookupHopsSig:mean 	17.25
scalar Network.dyn_peer[994] 	lookupTimeSig:mean 	4.5333333333333
scalar Network.dyn_peer[994] 	lookupStabilitySig:mean 	0.86662366862098
scalar Network.dyn_peer[994] 	lookupHopsSig:mean 	44.666666666667
scalar Network.dyn_peer[995] 	lookupTimeSig:mean 	0.76666666666667
scalar Network.dyn_peer[995] 	lookupStabilitySig:mean 	0.4330357114474
scalar Network.dyn_peer[995] 	lookupHopsSig:mean 	7
scalar Network.dyn_peer[996] 	lookupTimeSig:mean 	3.0333333333333
scalar Network.dyn_peer[996] 	lookupStabilitySig:mean 	0.89507300530871
scalar Network.dyn_peer[996] 	lookupHopsSig:mean 	29.666666666667
scalar Network.dyn_peer[997] 	lookupTimeSig:mean 	1.7875
scalar Network.dyn_peer[997] 	lookupStabilitySig:mean 	0.89050341001712
scalar Network.dyn_peer[997] 	lookupHopsSig:mean 	17
scalar Network.dyn_peer[998] 	lookupTimeSig:mean 	2.05
scalar Network.dyn_peer[998] 	lookupStabilitySig:mean 	0.90573013170312
scalar Network.dyn_peer[998] 	lookupHopsSig:mean 	19.666666666667
scalar Network.dyn_peer[999] 	lookupTimeSig:mean 	1.88
scalar Network.dyn_peer[999] 	lookupStabilitySig:mean 	0.88797027287073
scalar Network.dyn_peer[999] 	lookupHopsSig:mean 	17.9
scalar Network.churner 	inGoingSizeSig:mean 	499.000999001
