version 2
run Stability2-306-20130526-00:54:36-26640
attr configname Stability2
attr datetime 20130526-00:54:36
attr experiment Stability2
attr inifile omnetpp.ini
attr iterationvars $0=1000
attr iterationvars2 "$0=1000, $repetition=6"
attr measurement $0=1000
attr network Network
attr processid 26640
attr repetition 6
attr replication #6
attr resultdir results
attr runnumber 306
attr seedset 306

scalar Network.dyn_peer[0] 	lookupTimeSig:mean 	2.3666666666667
scalar Network.dyn_peer[0] 	lookupStabilitySig:mean 	0.766348957705
scalar Network.dyn_peer[0] 	lookupHopsSig:mean 	22.833333333333
scalar Network.dyn_peer[1] 	lookupTimeSig:mean 	2.05
scalar Network.dyn_peer[1] 	lookupStabilitySig:mean 	0.57500001043081
scalar Network.dyn_peer[1] 	lookupHopsSig:mean 	20
scalar Network.dyn_peer[2] 	lookupTimeSig:mean 	2.25
scalar Network.dyn_peer[2] 	lookupStabilitySig:mean 	0.73854573257267
scalar Network.dyn_peer[2] 	lookupHopsSig:mean 	21.75
scalar Network.dyn_peer[3] 	lookupTimeSig:mean 	1.225
scalar Network.dyn_peer[3] 	lookupStabilitySig:mean 	0.12915281951427
scalar Network.dyn_peer[3] 	lookupHopsSig:mean 	11.5
scalar Network.dyn_peer[4] 	lookupTimeSig:mean 	1
scalar Network.dyn_peer[4] 	lookupStabilitySig:mean 	-0.32500003278255
scalar Network.dyn_peer[4] 	lookupHopsSig:mean 	9.3333333333333
scalar Network.dyn_peer[5] 	lookupTimeSig:mean 	2.0333333333333
scalar Network.dyn_peer[5] 	lookupStabilitySig:mean 	-0.25720165669918
scalar Network.dyn_peer[5] 	lookupHopsSig:mean 	19.666666666667
scalar Network.dyn_peer[6] 	lookupTimeSig:mean 	1.88
scalar Network.dyn_peer[6] 	lookupStabilitySig:mean 	0.85970153771341
scalar Network.dyn_peer[6] 	lookupHopsSig:mean 	17.9
scalar Network.dyn_peer[7] 	lookupTimeSig:mean 	1.9555555555556
scalar Network.dyn_peer[7] 	lookupStabilitySig:mean 	0.66015952784154
scalar Network.dyn_peer[7] 	lookupHopsSig:mean 	18.666666666667
scalar Network.dyn_peer[8] 	lookupTimeSig:mean 	1.625
scalar Network.dyn_peer[8] 	lookupStabilitySig:mean 	0.24625831283629
scalar Network.dyn_peer[8] 	lookupHopsSig:mean 	15.5
scalar Network.dyn_peer[9] 	lookupTimeSig:mean 	1.55
scalar Network.dyn_peer[9] 	lookupStabilitySig:mean 	0.76108393794857
scalar Network.dyn_peer[9] 	lookupHopsSig:mean 	14.625
scalar Network.dyn_peer[10] 	lookupTimeSig:mean 	0.91428571428571
scalar Network.dyn_peer[10] 	lookupStabilitySig:mean 	0.51703208418829
scalar Network.dyn_peer[10] 	lookupHopsSig:mean 	8.2857142857143
scalar Network.dyn_peer[11] 	lookupTimeSig:mean 	1.05
scalar Network.dyn_peer[11] 	lookupStabilitySig:mean 	0.32087214166919
scalar Network.dyn_peer[11] 	lookupHopsSig:mean 	9.6666666666667
scalar Network.dyn_peer[12] 	lookupTimeSig:mean 	1.16
scalar Network.dyn_peer[12] 	lookupStabilitySig:mean 	0.16014518998563
scalar Network.dyn_peer[12] 	lookupHopsSig:mean 	10.8
scalar Network.dyn_peer[13] 	lookupTimeSig:mean 	1.25
scalar Network.dyn_peer[13] 	lookupStabilitySig:mean 	0.11011902615428
scalar Network.dyn_peer[13] 	lookupHopsSig:mean 	11.75
scalar Network.dyn_peer[14] 	lookupTimeSig:mean 	2.2
scalar Network.dyn_peer[14] 	lookupStabilitySig:mean 	0.59048209227622
scalar Network.dyn_peer[14] 	lookupHopsSig:mean 	21.2
scalar Network.dyn_peer[15] 	lookupTimeSig:mean 	1.2714285714286
scalar Network.dyn_peer[15] 	lookupStabilitySig:mean 	0.75103982404939
scalar Network.dyn_peer[15] 	lookupHopsSig:mean 	11.857142857143
scalar Network.dyn_peer[16] 	lookupTimeSig:mean 	2.175
scalar Network.dyn_peer[16] 	lookupStabilitySig:mean 	0.094047591090202
scalar Network.dyn_peer[16] 	lookupHopsSig:mean 	21
scalar Network.dyn_peer[17] 	lookupTimeSig:mean 	0.8
scalar Network.dyn_peer[17] 	lookupStabilitySig:mean 	0.18970586359501
scalar Network.dyn_peer[17] 	lookupHopsSig:mean 	7.25
scalar Network.dyn_peer[18] 	lookupTimeSig:mean 	1.575
scalar Network.dyn_peer[18] 	lookupStabilitySig:mean 	0.73067143326625
scalar Network.dyn_peer[18] 	lookupHopsSig:mean 	14.875
scalar Network.dyn_peer[19] 	lookupTimeSig:mean 	1.8666666666667
scalar Network.dyn_peer[19] 	lookupStabilitySig:mean 	0.34860380521665
scalar Network.dyn_peer[19] 	lookupHopsSig:mean 	17.833333333333
scalar Network.dyn_peer[20] 	lookupTimeSig:mean 	1.4
scalar Network.dyn_peer[20] 	lookupStabilitySig:mean 	0.41730768233538
scalar Network.dyn_peer[20] 	lookupHopsSig:mean 	13.25
scalar Network.dyn_peer[21] 	lookupTimeSig:mean 	0.83333333333333
scalar Network.dyn_peer[21] 	lookupStabilitySig:mean 	-0.13121692836285
scalar Network.dyn_peer[21] 	lookupHopsSig:mean 	7.6666666666667
scalar Network.dyn_peer[22] 	lookupTimeSig:mean 	1.65
scalar Network.dyn_peer[22] 	lookupStabilitySig:mean 	0.7173511851579
scalar Network.dyn_peer[22] 	lookupHopsSig:mean 	15.75
scalar Network.dyn_peer[23] 	lookupTimeSig:mean 	1.68
scalar Network.dyn_peer[23] 	lookupStabilitySig:mean 	0.43256250172853
scalar Network.dyn_peer[23] 	lookupHopsSig:mean 	16
scalar Network.dyn_peer[24] 	lookupTimeSig:mean 	1.05
scalar Network.dyn_peer[24] 	lookupStabilitySig:mean 	0.12960826605558
scalar Network.dyn_peer[24] 	lookupHopsSig:mean 	9.75
scalar Network.dyn_peer[25] 	lookupTimeSig:mean 	1.65
scalar Network.dyn_peer[25] 	lookupStabilitySig:mean 	0.0032763294875622
scalar Network.dyn_peer[25] 	lookupHopsSig:mean 	15.75
scalar Network.dyn_peer[26] 	lookupTimeSig:mean 	2.1
scalar Network.dyn_peer[26] 	lookupStabilitySig:mean 	0.63745278026909
scalar Network.dyn_peer[26] 	lookupHopsSig:mean 	20.25
scalar Network.dyn_peer[27] 	lookupTimeSig:mean 	1.8
scalar Network.dyn_peer[27] 	lookupStabilitySig:mean 	0.8689117568799
scalar Network.dyn_peer[27] 	lookupHopsSig:mean 	17.090909090909
scalar Network.dyn_peer[28] 	lookupTimeSig:mean 	2.325
scalar Network.dyn_peer[28] 	lookupStabilitySig:mean 	0.66977847740054
scalar Network.dyn_peer[28] 	lookupHopsSig:mean 	22.5
scalar Network.dyn_peer[29] 	lookupTimeSig:mean 	1.2666666666667
scalar Network.dyn_peer[29] 	lookupStabilitySig:mean 	0.22352941334248
scalar Network.dyn_peer[29] 	lookupHopsSig:mean 	12
scalar Network.dyn_peer[30] 	lookupTimeSig:mean 	2.32
scalar Network.dyn_peer[30] 	lookupStabilitySig:mean 	0.35190777517855
scalar Network.dyn_peer[30] 	lookupHopsSig:mean 	22.4
scalar Network.dyn_peer[31] 	lookupTimeSig:mean 	1.4
scalar Network.dyn_peer[31] 	lookupStabilitySig:mean 	0.18022160604596
scalar Network.dyn_peer[31] 	lookupHopsSig:mean 	13.25
scalar Network.dyn_peer[32] 	lookupTimeSig:mean 	2.6
scalar Network.dyn_peer[32] 	lookupStabilitySig:mean 	0.68532837554812
scalar Network.dyn_peer[32] 	lookupHopsSig:mean 	25.333333333333
scalar Network.dyn_peer[33] 	lookupTimeSig:mean 	1.86
scalar Network.dyn_peer[33] 	lookupStabilitySig:mean 	0.30662113726139
scalar Network.dyn_peer[33] 	lookupHopsSig:mean 	17.8
scalar Network.dyn_peer[34] 	lookupTimeSig:mean 	2.225
scalar Network.dyn_peer[34] 	lookupStabilitySig:mean 	0.56953313760459
scalar Network.dyn_peer[34] 	lookupHopsSig:mean 	21.5
scalar Network.dyn_peer[35] 	lookupTimeSig:mean 	1.66
scalar Network.dyn_peer[35] 	lookupStabilitySig:mean 	0.28980332836509
scalar Network.dyn_peer[35] 	lookupHopsSig:mean 	15.8
scalar Network.dyn_peer[36] 	lookupTimeSig:mean 	1.82
scalar Network.dyn_peer[36] 	lookupStabilitySig:mean 	0.66133589949459
scalar Network.dyn_peer[36] 	lookupHopsSig:mean 	17.4
scalar Network.dyn_peer[37] 	lookupTimeSig:mean 	3.65
scalar Network.dyn_peer[37] 	lookupStabilitySig:mean 	0.76023622602224
scalar Network.dyn_peer[37] 	lookupHopsSig:mean 	36
scalar Network.dyn_peer[38] 	lookupTimeSig:mean 	1.94
scalar Network.dyn_peer[38] 	lookupStabilitySig:mean 	0.59946956261992
scalar Network.dyn_peer[38] 	lookupHopsSig:mean 	18.6
scalar Network.dyn_peer[39] 	lookupTimeSig:mean 	2.05
scalar Network.dyn_peer[39] 	lookupStabilitySig:mean 	0.73622357053682
scalar Network.dyn_peer[39] 	lookupHopsSig:mean 	19.625
scalar Network.dyn_peer[40] 	lookupTimeSig:mean 	1.36
scalar Network.dyn_peer[40] 	lookupStabilitySig:mean 	0.23361810296774
scalar Network.dyn_peer[40] 	lookupHopsSig:mean 	12.8
scalar Network.dyn_peer[41] 	lookupTimeSig:mean 	1.5333333333333
scalar Network.dyn_peer[41] 	lookupStabilitySig:mean 	0.50897069275379
scalar Network.dyn_peer[41] 	lookupHopsSig:mean 	14.5
scalar Network.dyn_peer[42] 	lookupTimeSig:mean 	1.25
scalar Network.dyn_peer[42] 	lookupStabilitySig:mean 	0.34381978586316
scalar Network.dyn_peer[42] 	lookupHopsSig:mean 	11.75
scalar Network.dyn_peer[43] 	lookupTimeSig:mean 	1.6666666666667
scalar Network.dyn_peer[43] 	lookupStabilitySig:mean 	0.43194816137354
scalar Network.dyn_peer[43] 	lookupHopsSig:mean 	15.833333333333
scalar Network.dyn_peer[44] 	lookupTimeSig:mean 	3.6
scalar Network.dyn_peer[44] 	lookupStabilitySig:mean 	0.63058660924435
scalar Network.dyn_peer[44] 	lookupHopsSig:mean 	35.25
scalar Network.dyn_peer[45] 	lookupTimeSig:mean 	2
scalar Network.dyn_peer[45] 	lookupStabilitySig:mean 	0.4210194243739
scalar Network.dyn_peer[45] 	lookupHopsSig:mean 	19.166666666667
scalar Network.dyn_peer[46] 	lookupTimeSig:mean 	1.9333333333333
scalar Network.dyn_peer[46] 	lookupStabilitySig:mean 	0.58920447217921
scalar Network.dyn_peer[46] 	lookupHopsSig:mean 	18.5
scalar Network.dyn_peer[47] 	lookupTimeSig:mean 	2.8
scalar Network.dyn_peer[47] 	lookupStabilitySig:mean 	0.047117034671828
scalar Network.dyn_peer[47] 	lookupHopsSig:mean 	27.25
scalar Network.dyn_peer[48] 	lookupTimeSig:mean 	1.8333333333333
scalar Network.dyn_peer[48] 	lookupStabilitySig:mean 	0.74560809632142
scalar Network.dyn_peer[48] 	lookupHopsSig:mean 	17.666666666667
scalar Network.dyn_peer[49] 	lookupTimeSig:mean 	0.97142857142857
scalar Network.dyn_peer[49] 	lookupStabilitySig:mean 	0.45522982999682
scalar Network.dyn_peer[49] 	lookupHopsSig:mean 	8.8571428571429
scalar Network.dyn_peer[50] 	lookupTimeSig:mean 	1.7666666666667
scalar Network.dyn_peer[50] 	lookupStabilitySig:mean 	0.48336191972097
scalar Network.dyn_peer[50] 	lookupHopsSig:mean 	17
scalar Network.dyn_peer[51] 	lookupTimeSig:mean 	1.7428571428571
scalar Network.dyn_peer[51] 	lookupStabilitySig:mean 	0.6422591825415
scalar Network.dyn_peer[51] 	lookupHopsSig:mean 	16.571428571429
scalar Network.dyn_peer[52] 	lookupTimeSig:mean 	2.32
scalar Network.dyn_peer[52] 	lookupStabilitySig:mean 	0.82482251152396
scalar Network.dyn_peer[52] 	lookupHopsSig:mean 	22.4
scalar Network.dyn_peer[53] 	lookupTimeSig:mean 	1.6333333333333
scalar Network.dyn_peer[53] 	lookupStabilitySig:mean 	0.47087751204769
scalar Network.dyn_peer[53] 	lookupHopsSig:mean 	15.5
scalar Network.dyn_peer[54] 	lookupTimeSig:mean 	1.64
scalar Network.dyn_peer[54] 	lookupStabilitySig:mean 	0.46258576065302
scalar Network.dyn_peer[54] 	lookupHopsSig:mean 	15.6
scalar Network.dyn_peer[55] 	lookupTimeSig:mean 	1.525
scalar Network.dyn_peer[55] 	lookupStabilitySig:mean 	0.38873516675085
scalar Network.dyn_peer[55] 	lookupHopsSig:mean 	14.5
scalar Network.dyn_peer[56] 	lookupTimeSig:mean 	3.2
scalar Network.dyn_peer[56] 	lookupStabilitySig:mean 	0.75749270990491
scalar Network.dyn_peer[56] 	lookupHopsSig:mean 	31.333333333333
scalar Network.dyn_peer[57] 	lookupTimeSig:mean 	1.6777777777778
scalar Network.dyn_peer[57] 	lookupStabilitySig:mean 	0.55685638087905
scalar Network.dyn_peer[57] 	lookupHopsSig:mean 	15.888888888889
scalar Network.dyn_peer[58] 	lookupTimeSig:mean 	1.5125
scalar Network.dyn_peer[58] 	lookupStabilitySig:mean 	0.79459736010176
scalar Network.dyn_peer[58] 	lookupHopsSig:mean 	14.1875
scalar Network.dyn_peer[59] 	lookupTimeSig:mean 	2.86
scalar Network.dyn_peer[59] 	lookupStabilitySig:mean 	0.69950061067939
scalar Network.dyn_peer[59] 	lookupHopsSig:mean 	27.8
scalar Network.dyn_peer[60] 	lookupTimeSig:mean 	1.45
scalar Network.dyn_peer[60] 	lookupStabilitySig:mean 	0.56045480526518
scalar Network.dyn_peer[60] 	lookupHopsSig:mean 	13.625
scalar Network.dyn_peer[61] 	lookupTimeSig:mean 	1.4333333333333
scalar Network.dyn_peer[61] 	lookupStabilitySig:mean 	0.62707525833199
scalar Network.dyn_peer[61] 	lookupHopsSig:mean 	13.5
scalar Network.dyn_peer[62] 	lookupTimeSig:mean 	1.48
scalar Network.dyn_peer[62] 	lookupStabilitySig:mean 	0.43179646525532
scalar Network.dyn_peer[62] 	lookupHopsSig:mean 	14
scalar Network.dyn_peer[63] 	lookupTimeSig:mean 	2.35
scalar Network.dyn_peer[63] 	lookupStabilitySig:mean 	0.70903880335391
scalar Network.dyn_peer[63] 	lookupHopsSig:mean 	22.75
scalar Network.dyn_peer[64] 	lookupTimeSig:mean 	2.1
scalar Network.dyn_peer[64] 	lookupStabilitySig:mean 	0.75013623130508
scalar Network.dyn_peer[64] 	lookupHopsSig:mean 	20.25
scalar Network.dyn_peer[65] 	lookupTimeSig:mean 	1.475
scalar Network.dyn_peer[65] 	lookupStabilitySig:mean 	0.81601383676752
scalar Network.dyn_peer[65] 	lookupHopsSig:mean 	13.875
scalar Network.dyn_peer[66] 	lookupTimeSig:mean 	1.55
scalar Network.dyn_peer[66] 	lookupStabilitySig:mean 	0.58201809972525
scalar Network.dyn_peer[66] 	lookupHopsSig:mean 	14.75
scalar Network.dyn_peer[67] 	lookupTimeSig:mean 	0.8
scalar Network.dyn_peer[67] 	lookupStabilitySig:mean 	0.323733507966
scalar Network.dyn_peer[67] 	lookupHopsSig:mean 	7.1666666666667
scalar Network.dyn_peer[68] 	lookupTimeSig:mean 	1.8222222222222
scalar Network.dyn_peer[68] 	lookupStabilitySig:mean 	0.57484978158027
scalar Network.dyn_peer[68] 	lookupHopsSig:mean 	17.333333333333
scalar Network.dyn_peer[69] 	lookupTimeSig:mean 	1.4571428571429
scalar Network.dyn_peer[69] 	lookupStabilitySig:mean 	0.46910958790353
scalar Network.dyn_peer[69] 	lookupHopsSig:mean 	13.714285714286
scalar Network.dyn_peer[70] 	lookupTimeSig:mean 	2.11
scalar Network.dyn_peer[70] 	lookupStabilitySig:mean 	0.78036460494623
scalar Network.dyn_peer[70] 	lookupHopsSig:mean 	20.2
scalar Network.dyn_peer[71] 	lookupTimeSig:mean 	2.1666666666667
scalar Network.dyn_peer[71] 	lookupStabilitySig:mean 	0.53271934886773
scalar Network.dyn_peer[71] 	lookupHopsSig:mean 	21
scalar Network.dyn_peer[72] 	lookupTimeSig:mean 	3.28
scalar Network.dyn_peer[72] 	lookupStabilitySig:mean 	0.66020589210093
scalar Network.dyn_peer[72] 	lookupHopsSig:mean 	32
scalar Network.dyn_peer[73] 	lookupTimeSig:mean 	1.84
scalar Network.dyn_peer[73] 	lookupStabilitySig:mean 	0.54100209102035
scalar Network.dyn_peer[73] 	lookupHopsSig:mean 	17.6
scalar Network.dyn_peer[74] 	lookupTimeSig:mean 	1.5142857142857
scalar Network.dyn_peer[74] 	lookupStabilitySig:mean 	0.37932271536972
scalar Network.dyn_peer[74] 	lookupHopsSig:mean 	14.285714285714
scalar Network.dyn_peer[75] 	lookupTimeSig:mean 	1.8333333333333
scalar Network.dyn_peer[75] 	lookupStabilitySig:mean 	0.60760654012362
scalar Network.dyn_peer[75] 	lookupHopsSig:mean 	17.666666666667
scalar Network.dyn_peer[76] 	lookupTimeSig:mean 	1.34
scalar Network.dyn_peer[76] 	lookupStabilitySig:mean 	0.24842308610678
scalar Network.dyn_peer[76] 	lookupHopsSig:mean 	12.6
scalar Network.dyn_peer[77] 	lookupTimeSig:mean 	2.15
scalar Network.dyn_peer[77] 	lookupStabilitySig:mean 	0.17220566421747
scalar Network.dyn_peer[77] 	lookupHopsSig:mean 	20.75
scalar Network.dyn_peer[78] 	lookupTimeSig:mean 	1.3714285714286
scalar Network.dyn_peer[78] 	lookupStabilitySig:mean 	0.64089639431664
scalar Network.dyn_peer[78] 	lookupHopsSig:mean 	12.857142857143
scalar Network.dyn_peer[79] 	lookupTimeSig:mean 	2.4333333333333
scalar Network.dyn_peer[79] 	lookupStabilitySig:mean 	-0.072632928689321
scalar Network.dyn_peer[79] 	lookupHopsSig:mean 	23.666666666667
scalar Network.dyn_peer[80] 	lookupTimeSig:mean 	2.275
scalar Network.dyn_peer[80] 	lookupStabilitySig:mean 	0.13715526089072
scalar Network.dyn_peer[80] 	lookupHopsSig:mean 	22
scalar Network.dyn_peer[81] 	lookupTimeSig:mean 	1.375
scalar Network.dyn_peer[81] 	lookupStabilitySig:mean 	0.057753354310989
scalar Network.dyn_peer[81] 	lookupHopsSig:mean 	13
scalar Network.dyn_peer[82] 	lookupTimeSig:mean 	1.4
scalar Network.dyn_peer[82] 	lookupStabilitySig:mean 	0.042174120744069
scalar Network.dyn_peer[82] 	lookupHopsSig:mean 	13.333333333333
scalar Network.dyn_peer[83] 	lookupTimeSig:mean 	1.35
scalar Network.dyn_peer[83] 	lookupStabilitySig:mean 	0.26605089381337
scalar Network.dyn_peer[83] 	lookupHopsSig:mean 	12.75
scalar Network.dyn_peer[84] 	lookupTimeSig:mean 	2.58
scalar Network.dyn_peer[84] 	lookupStabilitySig:mean 	0.83547624796629
scalar Network.dyn_peer[84] 	lookupHopsSig:mean 	25
scalar Network.dyn_peer[85] 	lookupTimeSig:mean 	1.3
scalar Network.dyn_peer[85] 	lookupStabilitySig:mean 	0.8885485175997
scalar Network.dyn_peer[85] 	lookupHopsSig:mean 	12.125
scalar Network.dyn_peer[86] 	lookupTimeSig:mean 	1.6
scalar Network.dyn_peer[86] 	lookupStabilitySig:mean 	0.53021132852882
scalar Network.dyn_peer[86] 	lookupHopsSig:mean 	15.25
scalar Network.dyn_peer[87] 	lookupTimeSig:mean 	1.72
scalar Network.dyn_peer[87] 	lookupStabilitySig:mean 	0.46380023732781
scalar Network.dyn_peer[87] 	lookupHopsSig:mean 	16.4
scalar Network.dyn_peer[88] 	lookupTimeSig:mean 	2.4
scalar Network.dyn_peer[88] 	lookupStabilitySig:mean 	0.93801019274231
scalar Network.dyn_peer[88] 	lookupHopsSig:mean 	23.142857142857
scalar Network.dyn_peer[89] 	lookupTimeSig:mean 	3.7666666666667
scalar Network.dyn_peer[89] 	lookupStabilitySig:mean 	0.85120473305384
scalar Network.dyn_peer[89] 	lookupHopsSig:mean 	37
scalar Network.dyn_peer[90] 	lookupTimeSig:mean 	2.14
scalar Network.dyn_peer[90] 	lookupStabilitySig:mean 	0.52667583227158
scalar Network.dyn_peer[90] 	lookupHopsSig:mean 	20.6
scalar Network.dyn_peer[91] 	lookupTimeSig:mean 	1.5
scalar Network.dyn_peer[91] 	lookupStabilitySig:mean 	0.65797572183822
scalar Network.dyn_peer[91] 	lookupHopsSig:mean 	14.142857142857
scalar Network.dyn_peer[92] 	lookupTimeSig:mean 	1.7375
scalar Network.dyn_peer[92] 	lookupStabilitySig:mean 	0.72081574844196
scalar Network.dyn_peer[92] 	lookupHopsSig:mean 	16.5
scalar Network.dyn_peer[93] 	lookupTimeSig:mean 	1.8
scalar Network.dyn_peer[93] 	lookupStabilitySig:mean 	0.92062461593499
scalar Network.dyn_peer[93] 	lookupHopsSig:mean 	17.111111111111
scalar Network.dyn_peer[94] 	lookupTimeSig:mean 	2.46
scalar Network.dyn_peer[94] 	lookupStabilitySig:mean 	0.58038916569203
scalar Network.dyn_peer[94] 	lookupHopsSig:mean 	23.8
scalar Network.dyn_peer[95] 	lookupTimeSig:mean 	2.5
scalar Network.dyn_peer[95] 	lookupStabilitySig:mean 	0.42228572256863
scalar Network.dyn_peer[95] 	lookupHopsSig:mean 	24.25
scalar Network.dyn_peer[96] 	lookupTimeSig:mean 	2.25
scalar Network.dyn_peer[96] 	lookupStabilitySig:mean 	0.71213511563838
scalar Network.dyn_peer[96] 	lookupHopsSig:mean 	21.75
scalar Network.dyn_peer[97] 	lookupTimeSig:mean 	1.175
scalar Network.dyn_peer[97] 	lookupStabilitySig:mean 	-0.073743801563978
scalar Network.dyn_peer[97] 	lookupHopsSig:mean 	11
scalar Network.dyn_peer[98] 	lookupTimeSig:mean 	2.16
scalar Network.dyn_peer[98] 	lookupStabilitySig:mean 	0.48282872140408
scalar Network.dyn_peer[98] 	lookupHopsSig:mean 	20.8
scalar Network.dyn_peer[99] 	lookupTimeSig:mean 	0.8375
scalar Network.dyn_peer[99] 	lookupStabilitySig:mean 	0.5075737623265
scalar Network.dyn_peer[99] 	lookupHopsSig:mean 	7.5
scalar Network.dyn_peer[100] 	lookupTimeSig:mean 	2.025
scalar Network.dyn_peer[100] 	lookupStabilitySig:mean 	0.60358410142362
scalar Network.dyn_peer[100] 	lookupHopsSig:mean 	19.5
scalar Network.dyn_peer[101] 	lookupTimeSig:mean 	2.08
scalar Network.dyn_peer[101] 	lookupStabilitySig:mean 	0.55516579300165
scalar Network.dyn_peer[101] 	lookupHopsSig:mean 	20
scalar Network.dyn_peer[102] 	lookupTimeSig:mean 	1.0333333333333
scalar Network.dyn_peer[102] 	lookupStabilitySig:mean 	0.36484584150215
scalar Network.dyn_peer[102] 	lookupHopsSig:mean 	9.5
scalar Network.dyn_peer[103] 	lookupTimeSig:mean 	2.05
scalar Network.dyn_peer[103] 	lookupStabilitySig:mean 	0.18885824456811
scalar Network.dyn_peer[103] 	lookupHopsSig:mean 	19.75
scalar Network.dyn_peer[104] 	lookupTimeSig:mean 	2.42
scalar Network.dyn_peer[104] 	lookupStabilitySig:mean 	0.34674019217491
scalar Network.dyn_peer[104] 	lookupHopsSig:mean 	23.4
scalar Network.dyn_peer[105] 	lookupTimeSig:mean 	2.0333333333333
scalar Network.dyn_peer[105] 	lookupStabilitySig:mean 	-0.15465685973565
scalar Network.dyn_peer[105] 	lookupHopsSig:mean 	19.666666666667
scalar Network.dyn_peer[106] 	lookupTimeSig:mean 	2.3428571428571
scalar Network.dyn_peer[106] 	lookupStabilitySig:mean 	0.81259424319225
scalar Network.dyn_peer[106] 	lookupHopsSig:mean 	22.571428571429
scalar Network.dyn_peer[107] 	lookupTimeSig:mean 	1.74
scalar Network.dyn_peer[107] 	lookupStabilitySig:mean 	0.67679714635015
scalar Network.dyn_peer[107] 	lookupHopsSig:mean 	16.6
scalar Network.dyn_peer[108] 	lookupTimeSig:mean 	1.725
scalar Network.dyn_peer[108] 	lookupStabilitySig:mean 	0.21766867674887
scalar Network.dyn_peer[108] 	lookupHopsSig:mean 	16.5
scalar Network.dyn_peer[109] 	lookupTimeSig:mean 	1.1666666666667
scalar Network.dyn_peer[109] 	lookupStabilitySig:mean 	0.56207197159529
scalar Network.dyn_peer[109] 	lookupHopsSig:mean 	10.777777777778
scalar Network.dyn_peer[110] 	lookupTimeSig:mean 	2.0444444444444
scalar Network.dyn_peer[110] 	lookupStabilitySig:mean 	0.65456800059312
scalar Network.dyn_peer[110] 	lookupHopsSig:mean 	19.555555555556
scalar Network.dyn_peer[111] 	lookupTimeSig:mean 	1.28
scalar Network.dyn_peer[111] 	lookupStabilitySig:mean 	0.63401199057698
scalar Network.dyn_peer[111] 	lookupHopsSig:mean 	12
scalar Network.dyn_peer[112] 	lookupTimeSig:mean 	1.8357142857143
scalar Network.dyn_peer[112] 	lookupStabilitySig:mean 	0.70826215110719
scalar Network.dyn_peer[112] 	lookupHopsSig:mean 	17.428571428571
scalar Network.dyn_peer[113] 	lookupTimeSig:mean 	2.0285714285714
scalar Network.dyn_peer[113] 	lookupStabilitySig:mean 	0.74329257038023
scalar Network.dyn_peer[113] 	lookupHopsSig:mean 	19.428571428571
scalar Network.dyn_peer[114] 	lookupTimeSig:mean 	1.8
scalar Network.dyn_peer[114] 	lookupStabilitySig:mean 	-0.26595744490623
scalar Network.dyn_peer[114] 	lookupHopsSig:mean 	17.5
scalar Network.dyn_peer[115] 	lookupTimeSig:mean 	0.8625
scalar Network.dyn_peer[115] 	lookupStabilitySig:mean 	0.67904693284072
scalar Network.dyn_peer[115] 	lookupHopsSig:mean 	7.75
scalar Network.dyn_peer[116] 	lookupTimeSig:mean 	3.8
scalar Network.dyn_peer[116] 	lookupStabilitySig:mean 	0.37847222387791
scalar Network.dyn_peer[116] 	lookupHopsSig:mean 	37.5
scalar Network.dyn_peer[117] 	lookupTimeSig:mean 	1.7
scalar Network.dyn_peer[117] 	lookupStabilitySig:mean 	0.64131032079458
scalar Network.dyn_peer[117] 	lookupHopsSig:mean 	16.2
scalar Network.dyn_peer[118] 	lookupTimeSig:mean 	1.4857142857143
scalar Network.dyn_peer[118] 	lookupStabilitySig:mean 	0.43089332697647
scalar Network.dyn_peer[118] 	lookupHopsSig:mean 	14
scalar Network.dyn_peer[119] 	lookupTimeSig:mean 	0.88
scalar Network.dyn_peer[119] 	lookupStabilitySig:mean 	0.42922416627407
scalar Network.dyn_peer[119] 	lookupHopsSig:mean 	8
scalar Network.dyn_peer[120] 	lookupTimeSig:mean 	1.94
scalar Network.dyn_peer[120] 	lookupStabilitySig:mean 	0.50541739612818
scalar Network.dyn_peer[120] 	lookupHopsSig:mean 	18.6
scalar Network.dyn_peer[121] 	lookupTimeSig:mean 	1.75
scalar Network.dyn_peer[121] 	lookupStabilitySig:mean 	0.96501998094997
scalar Network.dyn_peer[121] 	lookupHopsSig:mean 	16.583333333333
scalar Network.dyn_peer[122] 	lookupTimeSig:mean 	1.76
scalar Network.dyn_peer[122] 	lookupStabilitySig:mean 	0.94457433256321
scalar Network.dyn_peer[122] 	lookupHopsSig:mean 	16.7
scalar Network.dyn_peer[123] 	lookupTimeSig:mean 	1.4
scalar Network.dyn_peer[123] 	lookupStabilitySig:mean 	-0.065145360305905
scalar Network.dyn_peer[123] 	lookupHopsSig:mean 	13.25
scalar Network.dyn_peer[124] 	lookupTimeSig:mean 	1.9
scalar Network.dyn_peer[124] 	lookupStabilitySig:mean 	0.55650086253881
scalar Network.dyn_peer[124] 	lookupHopsSig:mean 	18.2
scalar Network.dyn_peer[125] 	lookupTimeSig:mean 	1.1777777777778
scalar Network.dyn_peer[125] 	lookupStabilitySig:mean 	0.75002035291659
scalar Network.dyn_peer[125] 	lookupHopsSig:mean 	10.888888888889
scalar Network.dyn_peer[126] 	lookupTimeSig:mean 	2.0666666666667
scalar Network.dyn_peer[126] 	lookupStabilitySig:mean 	0.7040543500334
scalar Network.dyn_peer[126] 	lookupHopsSig:mean 	19.75
scalar Network.dyn_peer[127] 	lookupTimeSig:mean 	3.4
scalar Network.dyn_peer[127] 	lookupStabilitySig:mean 	0.36098654568195
scalar Network.dyn_peer[127] 	lookupHopsSig:mean 	33.5
scalar Network.dyn_peer[128] 	lookupTimeSig:mean 	2.1625
scalar Network.dyn_peer[128] 	lookupStabilitySig:mean 	0.90143182601605
scalar Network.dyn_peer[128] 	lookupHopsSig:mean 	20.75
scalar Network.dyn_peer[129] 	lookupTimeSig:mean 	1.38
scalar Network.dyn_peer[129] 	lookupStabilitySig:mean 	0.34694363847375
scalar Network.dyn_peer[129] 	lookupHopsSig:mean 	13
scalar Network.dyn_peer[130] 	lookupTimeSig:mean 	1.6222222222222
scalar Network.dyn_peer[130] 	lookupStabilitySig:mean 	0.88751665678703
scalar Network.dyn_peer[130] 	lookupHopsSig:mean 	15.333333333333
scalar Network.dyn_peer[131] 	lookupTimeSig:mean 	1.8444444444444
scalar Network.dyn_peer[131] 	lookupStabilitySig:mean 	0.94110483520975
scalar Network.dyn_peer[131] 	lookupHopsSig:mean 	17.555555555556
scalar Network.dyn_peer[132] 	lookupTimeSig:mean 	1.98
scalar Network.dyn_peer[132] 	lookupStabilitySig:mean 	0.39279963448644
scalar Network.dyn_peer[132] 	lookupHopsSig:mean 	19
scalar Network.dyn_peer[133] 	lookupTimeSig:mean 	1.5666666666667
scalar Network.dyn_peer[133] 	lookupStabilitySig:mean 	0.45090384408832
scalar Network.dyn_peer[133] 	lookupHopsSig:mean 	14.833333333333
scalar Network.dyn_peer[134] 	lookupTimeSig:mean 	1.7444444444444
scalar Network.dyn_peer[134] 	lookupStabilitySig:mean 	0.84696908419331
scalar Network.dyn_peer[134] 	lookupHopsSig:mean 	16.555555555556
scalar Network.dyn_peer[135] 	lookupTimeSig:mean 	1.5285714285714
scalar Network.dyn_peer[135] 	lookupStabilitySig:mean 	0.634017139008
scalar Network.dyn_peer[135] 	lookupHopsSig:mean 	14.428571428571
scalar Network.dyn_peer[136] 	lookupTimeSig:mean 	1.3
scalar Network.dyn_peer[136] 	lookupStabilitySig:mean 	0.26352399773896
scalar Network.dyn_peer[136] 	lookupHopsSig:mean 	12.25
scalar Network.dyn_peer[137] 	lookupTimeSig:mean 	2.1
scalar Network.dyn_peer[137] 	lookupStabilitySig:mean 	0.75474886922166
scalar Network.dyn_peer[137] 	lookupHopsSig:mean 	20.166666666667
scalar Network.dyn_peer[138] 	lookupTimeSig:mean 	2.625
scalar Network.dyn_peer[138] 	lookupStabilitySig:mean 	0.73864787444472
scalar Network.dyn_peer[138] 	lookupHopsSig:mean 	25.5
scalar Network.dyn_peer[139] 	lookupTimeSig:mean 	2.0333333333333
scalar Network.dyn_peer[139] 	lookupStabilitySig:mean 	0.74516561254859
scalar Network.dyn_peer[139] 	lookupHopsSig:mean 	19.666666666667
scalar Network.dyn_peer[140] 	lookupTimeSig:mean 	1.45
scalar Network.dyn_peer[140] 	lookupStabilitySig:mean 	0.60335788642988
scalar Network.dyn_peer[140] 	lookupHopsSig:mean 	13.75
scalar Network.dyn_peer[141] 	lookupTimeSig:mean 	1.5
scalar Network.dyn_peer[141] 	lookupStabilitySig:mean 	0.56526071834378
scalar Network.dyn_peer[141] 	lookupHopsSig:mean 	14.125
scalar Network.dyn_peer[142] 	lookupTimeSig:mean 	1.9285714285714
scalar Network.dyn_peer[142] 	lookupStabilitySig:mean 	0.50794807342546
scalar Network.dyn_peer[142] 	lookupHopsSig:mean 	18.428571428571
scalar Network.dyn_peer[143] 	lookupTimeSig:mean 	0.86666666666667
scalar Network.dyn_peer[143] 	lookupStabilitySig:mean 	0.41113323221604
scalar Network.dyn_peer[143] 	lookupHopsSig:mean 	7.8333333333333
scalar Network.dyn_peer[144] 	lookupTimeSig:mean 	1.6714285714286
scalar Network.dyn_peer[144] 	lookupStabilitySig:mean 	0.63674714436222
scalar Network.dyn_peer[144] 	lookupHopsSig:mean 	15.857142857143
scalar Network.dyn_peer[145] 	lookupTimeSig:mean 	2.0375
scalar Network.dyn_peer[145] 	lookupStabilitySig:mean 	0.59304406994488
scalar Network.dyn_peer[145] 	lookupHopsSig:mean 	19.5
scalar Network.dyn_peer[146] 	lookupTimeSig:mean 	1.6
scalar Network.dyn_peer[146] 	lookupStabilitySig:mean 	0.77411335360957
scalar Network.dyn_peer[146] 	lookupHopsSig:mean 	15.1
scalar Network.dyn_peer[147] 	lookupTimeSig:mean 	1.4375
scalar Network.dyn_peer[147] 	lookupStabilitySig:mean 	0.55346367950551
scalar Network.dyn_peer[147] 	lookupHopsSig:mean 	13.5
scalar Network.dyn_peer[148] 	lookupTimeSig:mean 	1.1875
scalar Network.dyn_peer[148] 	lookupStabilitySig:mean 	0.78460562659893
scalar Network.dyn_peer[148] 	lookupHopsSig:mean 	11
scalar Network.dyn_peer[149] 	lookupTimeSig:mean 	2.6333333333333
scalar Network.dyn_peer[149] 	lookupStabilitySig:mean 	-0.043927391370138
scalar Network.dyn_peer[149] 	lookupHopsSig:mean 	25.666666666667
scalar Network.dyn_peer[150] 	lookupTimeSig:mean 	2.8
scalar Network.dyn_peer[150] 	lookupStabilitySig:mean 	-0.19028520584106
scalar Network.dyn_peer[150] 	lookupHopsSig:mean 	27.333333333333
scalar Network.dyn_peer[151] 	lookupTimeSig:mean 	2.7666666666667
scalar Network.dyn_peer[151] 	lookupStabilitySig:mean 	0.87837414784978
scalar Network.dyn_peer[151] 	lookupHopsSig:mean 	26.833333333333
scalar Network.dyn_peer[152] 	lookupTimeSig:mean 	2.525
scalar Network.dyn_peer[152] 	lookupStabilitySig:mean 	0.069189878180623
scalar Network.dyn_peer[152] 	lookupHopsSig:mean 	24.5
scalar Network.dyn_peer[153] 	lookupTimeSig:mean 	1.95
scalar Network.dyn_peer[153] 	lookupStabilitySig:mean 	0.21848272159696
scalar Network.dyn_peer[153] 	lookupHopsSig:mean 	18.75
scalar Network.dyn_peer[154] 	lookupTimeSig:mean 	1.7142857142857
scalar Network.dyn_peer[154] 	lookupStabilitySig:mean 	0.81713326142303
scalar Network.dyn_peer[154] 	lookupHopsSig:mean 	16.285714285714
scalar Network.dyn_peer[155] 	lookupTimeSig:mean 	1.6545454545455
scalar Network.dyn_peer[155] 	lookupStabilitySig:mean 	0.8239211238582
scalar Network.dyn_peer[155] 	lookupHopsSig:mean 	15.636363636364
scalar Network.dyn_peer[156] 	lookupTimeSig:mean 	1.425
scalar Network.dyn_peer[156] 	lookupStabilitySig:mean 	0.1370962485671
scalar Network.dyn_peer[156] 	lookupHopsSig:mean 	13.5
scalar Network.dyn_peer[157] 	lookupTimeSig:mean 	1.95
scalar Network.dyn_peer[157] 	lookupStabilitySig:mean 	0.12413790822029
scalar Network.dyn_peer[157] 	lookupHopsSig:mean 	19
scalar Network.dyn_peer[158] 	lookupTimeSig:mean 	3.1
scalar Network.dyn_peer[158] 	lookupStabilitySig:mean 	0.42901233832041
scalar Network.dyn_peer[158] 	lookupHopsSig:mean 	30.333333333333
scalar Network.dyn_peer[159] 	lookupTimeSig:mean 	2.46
scalar Network.dyn_peer[159] 	lookupStabilitySig:mean 	0.53707430139184
scalar Network.dyn_peer[159] 	lookupHopsSig:mean 	23.8
scalar Network.dyn_peer[160] 	lookupTimeSig:mean 	2.5
scalar Network.dyn_peer[160] 	lookupStabilitySig:mean 	0.64657550376918
scalar Network.dyn_peer[160] 	lookupHopsSig:mean 	24.166666666667
scalar Network.dyn_peer[161] 	lookupTimeSig:mean 	1.2
scalar Network.dyn_peer[161] 	lookupStabilitySig:mean 	0.49335191134984
scalar Network.dyn_peer[161] 	lookupHopsSig:mean 	11.166666666667
scalar Network.dyn_peer[162] 	lookupTimeSig:mean 	2
scalar Network.dyn_peer[162] 	lookupStabilitySig:mean 	0.59669761545956
scalar Network.dyn_peer[162] 	lookupHopsSig:mean 	19.25
scalar Network.dyn_peer[163] 	lookupTimeSig:mean 	1.75
scalar Network.dyn_peer[163] 	lookupStabilitySig:mean 	0.54792397841811
scalar Network.dyn_peer[163] 	lookupHopsSig:mean 	16.625
scalar Network.dyn_peer[164] 	lookupTimeSig:mean 	1.44
scalar Network.dyn_peer[164] 	lookupStabilitySig:mean 	0.26014871075749
scalar Network.dyn_peer[164] 	lookupHopsSig:mean 	13.6
scalar Network.dyn_peer[165] 	lookupTimeSig:mean 	1.7
scalar Network.dyn_peer[165] 	lookupStabilitySig:mean 	0.79150479938835
scalar Network.dyn_peer[165] 	lookupHopsSig:mean 	16.25
scalar Network.dyn_peer[166] 	lookupTimeSig:mean 	1.9714285714286
scalar Network.dyn_peer[166] 	lookupStabilitySig:mean 	0.6127276463168
scalar Network.dyn_peer[166] 	lookupHopsSig:mean 	18.857142857143
scalar Network.dyn_peer[167] 	lookupTimeSig:mean 	3.3
scalar Network.dyn_peer[167] 	lookupStabilitySig:mean 	0.64558823406696
scalar Network.dyn_peer[167] 	lookupHopsSig:mean 	32.5
scalar Network.dyn_peer[168] 	lookupTimeSig:mean 	1.9625
scalar Network.dyn_peer[168] 	lookupStabilitySig:mean 	0.57095115957782
scalar Network.dyn_peer[168] 	lookupHopsSig:mean 	18.75
scalar Network.dyn_peer[169] 	lookupTimeSig:mean 	2.0666666666667
scalar Network.dyn_peer[169] 	lookupStabilitySig:mean 	0.83601798148205
scalar Network.dyn_peer[169] 	lookupHopsSig:mean 	19.777777777778
scalar Network.dyn_peer[170] 	lookupTimeSig:mean 	2.5
scalar Network.dyn_peer[170] 	lookupStabilitySig:mean 	0.9010023329407
scalar Network.dyn_peer[170] 	lookupHopsSig:mean 	24.2
scalar Network.dyn_peer[171] 	lookupTimeSig:mean 	2.05
scalar Network.dyn_peer[171] 	lookupStabilitySig:mean 	0.94307330343872
scalar Network.dyn_peer[171] 	lookupHopsSig:mean 	19.625
scalar Network.dyn_peer[172] 	lookupTimeSig:mean 	1.4833333333333
scalar Network.dyn_peer[172] 	lookupStabilitySig:mean 	0.71790272866686
scalar Network.dyn_peer[172] 	lookupHopsSig:mean 	14
scalar Network.dyn_peer[173] 	lookupTimeSig:mean 	1.7857142857143
scalar Network.dyn_peer[173] 	lookupStabilitySig:mean 	0.90679177828133
scalar Network.dyn_peer[173] 	lookupHopsSig:mean 	17
scalar Network.dyn_peer[174] 	lookupTimeSig:mean 	2.3
scalar Network.dyn_peer[174] 	lookupStabilitySig:mean 	0.8447239305824
scalar Network.dyn_peer[174] 	lookupHopsSig:mean 	22.25
scalar Network.dyn_peer[175] 	lookupTimeSig:mean 	2
scalar Network.dyn_peer[175] 	lookupStabilitySig:mean 	0.21866740783056
scalar Network.dyn_peer[175] 	lookupHopsSig:mean 	19.333333333333
scalar Network.dyn_peer[176] 	lookupTimeSig:mean 	2.6666666666667
scalar Network.dyn_peer[176] 	lookupStabilitySig:mean 	0.61759408811728
scalar Network.dyn_peer[176] 	lookupHopsSig:mean 	26
scalar Network.dyn_peer[177] 	lookupTimeSig:mean 	1.7833333333333
scalar Network.dyn_peer[177] 	lookupStabilitySig:mean 	0.44207578276594
scalar Network.dyn_peer[177] 	lookupHopsSig:mean 	17
scalar Network.dyn_peer[178] 	lookupTimeSig:mean 	1.9714285714286
scalar Network.dyn_peer[178] 	lookupStabilitySig:mean 	0.93785835975515
scalar Network.dyn_peer[178] 	lookupHopsSig:mean 	18.857142857143
scalar Network.dyn_peer[179] 	lookupTimeSig:mean 	1.8
scalar Network.dyn_peer[179] 	lookupStabilitySig:mean 	0.69136932824871
scalar Network.dyn_peer[179] 	lookupHopsSig:mean 	17.142857142857
scalar Network.dyn_peer[180] 	lookupTimeSig:mean 	2.6666666666667
scalar Network.dyn_peer[180] 	lookupStabilitySig:mean 	0.79483899675931
scalar Network.dyn_peer[180] 	lookupHopsSig:mean 	25.833333333333
scalar Network.dyn_peer[181] 	lookupTimeSig:mean 	1.8166666666667
scalar Network.dyn_peer[181] 	lookupStabilitySig:mean 	0.46214380115271
scalar Network.dyn_peer[181] 	lookupHopsSig:mean 	17.333333333333
scalar Network.dyn_peer[182] 	lookupTimeSig:mean 	2.4
scalar Network.dyn_peer[182] 	lookupStabilitySig:mean 	0.81160881510004
scalar Network.dyn_peer[182] 	lookupHopsSig:mean 	23.25
scalar Network.dyn_peer[183] 	lookupTimeSig:mean 	1.375
scalar Network.dyn_peer[183] 	lookupStabilitySig:mean 	0.07639117911458
scalar Network.dyn_peer[183] 	lookupHopsSig:mean 	13
scalar Network.dyn_peer[184] 	lookupTimeSig:mean 	1.6857142857143
scalar Network.dyn_peer[184] 	lookupStabilitySig:mean 	0.47203551498907
scalar Network.dyn_peer[184] 	lookupHopsSig:mean 	16
scalar Network.dyn_peer[185] 	lookupTimeSig:mean 	1.4142857142857
scalar Network.dyn_peer[185] 	lookupStabilitySig:mean 	0.70564989798835
scalar Network.dyn_peer[185] 	lookupHopsSig:mean 	13.285714285714
scalar Network.dyn_peer[186] 	lookupTimeSig:mean 	1.325
scalar Network.dyn_peer[186] 	lookupStabilitySig:mean 	0.53854537312873
scalar Network.dyn_peer[186] 	lookupHopsSig:mean 	12.375
scalar Network.dyn_peer[187] 	lookupTimeSig:mean 	1.0333333333333
scalar Network.dyn_peer[187] 	lookupStabilitySig:mean 	0.40074863277065
scalar Network.dyn_peer[187] 	lookupHopsSig:mean 	9.5
scalar Network.dyn_peer[188] 	lookupTimeSig:mean 	1.9
scalar Network.dyn_peer[188] 	lookupStabilitySig:mean 	0.95541951717395
scalar Network.dyn_peer[188] 	lookupHopsSig:mean 	18.111111111111
scalar Network.dyn_peer[189] 	lookupTimeSig:mean 	2.775
scalar Network.dyn_peer[189] 	lookupStabilitySig:mean 	0.94781368208351
scalar Network.dyn_peer[189] 	lookupHopsSig:mean 	26.875
scalar Network.dyn_peer[190] 	lookupTimeSig:mean 	4
scalar Network.dyn_peer[190] 	lookupStabilitySig:mean 	0.76372239366174
scalar Network.dyn_peer[190] 	lookupHopsSig:mean 	39.5
scalar Network.dyn_peer[191] 	lookupTimeSig:mean 	2.025
scalar Network.dyn_peer[191] 	lookupStabilitySig:mean 	0.054768647998571
scalar Network.dyn_peer[191] 	lookupHopsSig:mean 	19.5
scalar Network.dyn_peer[192] 	lookupTimeSig:mean 	2.0444444444444
scalar Network.dyn_peer[192] 	lookupStabilitySig:mean 	0.88358770491969
scalar Network.dyn_peer[192] 	lookupHopsSig:mean 	19.555555555556
scalar Network.dyn_peer[193] 	lookupTimeSig:mean 	4
scalar Network.dyn_peer[193] 	lookupStabilitySig:mean 	0.70702069997787
scalar Network.dyn_peer[193] 	lookupHopsSig:mean 	39.5
scalar Network.dyn_peer[194] 	lookupTimeSig:mean 	2.78
scalar Network.dyn_peer[194] 	lookupStabilitySig:mean 	0.26477716416121
scalar Network.dyn_peer[194] 	lookupHopsSig:mean 	27
scalar Network.dyn_peer[195] 	lookupTimeSig:mean 	3.9
scalar Network.dyn_peer[195] 	lookupStabilitySig:mean 	0.073996499180794
scalar Network.dyn_peer[195] 	lookupHopsSig:mean 	38.333333333333
scalar Network.dyn_peer[196] 	lookupTimeSig:mean 	0.85
scalar Network.dyn_peer[196] 	lookupStabilitySig:mean 	-0.60000005364418
scalar Network.dyn_peer[196] 	lookupHopsSig:mean 	8
scalar Network.dyn_peer[197] 	lookupTimeSig:mean 	3.3
scalar Network.dyn_peer[197] 	lookupStabilitySig:mean 	-0.0436858634154
scalar Network.dyn_peer[197] 	lookupHopsSig:mean 	32.333333333333
scalar Network.dyn_peer[198] 	lookupTimeSig:mean 	1.6
scalar Network.dyn_peer[198] 	lookupStabilitySig:mean 	0.80975116137415
scalar Network.dyn_peer[198] 	lookupHopsSig:mean 	15.2
scalar Network.dyn_peer[199] 	lookupTimeSig:mean 	1.2444444444444
scalar Network.dyn_peer[199] 	lookupStabilitySig:mean 	0.6309166310562
scalar Network.dyn_peer[199] 	lookupHopsSig:mean 	11.555555555556
scalar Network.dyn_peer[200] 	lookupTimeSig:mean 	2.15
scalar Network.dyn_peer[200] 	lookupStabilitySig:mean 	0.85418615303934
scalar Network.dyn_peer[200] 	lookupHopsSig:mean 	20.666666666667
scalar Network.dyn_peer[201] 	lookupTimeSig:mean 	2.2714285714286
scalar Network.dyn_peer[201] 	lookupStabilitySig:mean 	0.94489133890186
scalar Network.dyn_peer[201] 	lookupHopsSig:mean 	21.857142857143
scalar Network.dyn_peer[202] 	lookupTimeSig:mean 	1.9
scalar Network.dyn_peer[202] 	lookupStabilitySig:mean 	0.85605523176491
scalar Network.dyn_peer[202] 	lookupHopsSig:mean 	18.25
scalar Network.dyn_peer[203] 	lookupTimeSig:mean 	1.6857142857143
scalar Network.dyn_peer[203] 	lookupStabilitySig:mean 	0.94663537832509
scalar Network.dyn_peer[203] 	lookupHopsSig:mean 	15.928571428571
scalar Network.dyn_peer[204] 	lookupTimeSig:mean 	1.95
scalar Network.dyn_peer[204] 	lookupStabilitySig:mean 	0.78725568857044
scalar Network.dyn_peer[204] 	lookupHopsSig:mean 	18.625
scalar Network.dyn_peer[205] 	lookupTimeSig:mean 	2.225
scalar Network.dyn_peer[205] 	lookupStabilitySig:mean 	0.88703560293652
scalar Network.dyn_peer[205] 	lookupHopsSig:mean 	21.5
scalar Network.dyn_peer[206] 	lookupTimeSig:mean 	2.575
scalar Network.dyn_peer[206] 	lookupStabilitySig:mean 	0.089165479876101
scalar Network.dyn_peer[206] 	lookupHopsSig:mean 	25
scalar Network.dyn_peer[207] 	lookupTimeSig:mean 	1.6
scalar Network.dyn_peer[207] 	lookupStabilitySig:mean 	-0.45676690340042
scalar Network.dyn_peer[207] 	lookupHopsSig:mean 	15.5
scalar Network.dyn_peer[208] 	lookupTimeSig:mean 	2.1285714285714
scalar Network.dyn_peer[208] 	lookupStabilitySig:mean 	0.92725881721292
scalar Network.dyn_peer[208] 	lookupHopsSig:mean 	20.428571428571
scalar Network.dyn_peer[209] 	lookupTimeSig:mean 	2.9
scalar Network.dyn_peer[209] 	lookupStabilitySig:mean 	0.90965490291516
scalar Network.dyn_peer[209] 	lookupHopsSig:mean 	28.166666666667
scalar Network.dyn_peer[210] 	lookupTimeSig:mean 	2.26
scalar Network.dyn_peer[210] 	lookupStabilitySig:mean 	0.41089308075607
scalar Network.dyn_peer[210] 	lookupHopsSig:mean 	21.8
scalar Network.dyn_peer[211] 	lookupTimeSig:mean 	1.5
scalar Network.dyn_peer[211] 	lookupStabilitySig:mean 	0.82040749011295
scalar Network.dyn_peer[211] 	lookupHopsSig:mean 	14.142857142857
scalar Network.dyn_peer[212] 	lookupTimeSig:mean 	1.98
scalar Network.dyn_peer[212] 	lookupStabilitySig:mean 	0.49247355293483
scalar Network.dyn_peer[212] 	lookupHopsSig:mean 	19
scalar Network.dyn_peer[213] 	lookupTimeSig:mean 	3.55
scalar Network.dyn_peer[213] 	lookupStabilitySig:mean 	0.65111539885402
scalar Network.dyn_peer[213] 	lookupHopsSig:mean 	35
scalar Network.dyn_peer[214] 	lookupTimeSig:mean 	2.88
scalar Network.dyn_peer[214] 	lookupStabilitySig:mean 	0.88706261534244
scalar Network.dyn_peer[214] 	lookupHopsSig:mean 	28
scalar Network.dyn_peer[215] 	lookupTimeSig:mean 	1.7818181818182
scalar Network.dyn_peer[215] 	lookupStabilitySig:mean 	0.93021263364194
scalar Network.dyn_peer[215] 	lookupHopsSig:mean 	16.909090909091
scalar Network.dyn_peer[216] 	lookupTimeSig:mean 	1.4
scalar Network.dyn_peer[216] 	lookupStabilitySig:mean 	0.09379418194294
scalar Network.dyn_peer[216] 	lookupHopsSig:mean 	13.333333333333
scalar Network.dyn_peer[217] 	lookupTimeSig:mean 	2.6
scalar Network.dyn_peer[217] 	lookupStabilitySig:mean 	0.73144031092525
scalar Network.dyn_peer[217] 	lookupHopsSig:mean 	25.2
scalar Network.dyn_peer[218] 	lookupTimeSig:mean 	2.5333333333333
scalar Network.dyn_peer[218] 	lookupStabilitySig:mean 	0.076681676010291
scalar Network.dyn_peer[218] 	lookupHopsSig:mean 	24.666666666667
scalar Network.dyn_peer[219] 	lookupTimeSig:mean 	1.5666666666667
scalar Network.dyn_peer[219] 	lookupStabilitySig:mean 	-0.047229592998823
scalar Network.dyn_peer[219] 	lookupHopsSig:mean 	15
scalar Network.dyn_peer[220] 	lookupTimeSig:mean 	2.4875
scalar Network.dyn_peer[220] 	lookupStabilitySig:mean 	0.95070784405107
scalar Network.dyn_peer[220] 	lookupHopsSig:mean 	24
scalar Network.dyn_peer[221] 	lookupTimeSig:mean 	1.38
scalar Network.dyn_peer[221] 	lookupStabilitySig:mean 	0.22256867736578
scalar Network.dyn_peer[221] 	lookupHopsSig:mean 	13
scalar Network.dyn_peer[222] 	lookupTimeSig:mean 	2.3
scalar Network.dyn_peer[222] 	lookupStabilitySig:mean 	0.38708292444547
scalar Network.dyn_peer[222] 	lookupHopsSig:mean 	22.333333333333
scalar Network.dyn_peer[223] 	lookupTimeSig:mean 	2.4
scalar Network.dyn_peer[223] 	lookupStabilitySig:mean 	-0.20180945595105
scalar Network.dyn_peer[223] 	lookupHopsSig:mean 	23.333333333333
scalar Network.dyn_peer[224] 	lookupTimeSig:mean 	1.5777777777778
scalar Network.dyn_peer[224] 	lookupStabilitySig:mean 	0.93359907592336
scalar Network.dyn_peer[224] 	lookupHopsSig:mean 	14.888888888889
scalar Network.dyn_peer[225] 	lookupTimeSig:mean 	1.425
scalar Network.dyn_peer[225] 	lookupStabilitySig:mean 	0.73438709694892
scalar Network.dyn_peer[225] 	lookupHopsSig:mean 	13.375
scalar Network.dyn_peer[226] 	lookupTimeSig:mean 	1.5428571428571
scalar Network.dyn_peer[226] 	lookupStabilitySig:mean 	0.83936690512512
scalar Network.dyn_peer[226] 	lookupHopsSig:mean 	14.571428571429
scalar Network.dyn_peer[227] 	lookupTimeSig:mean 	2.8
scalar Network.dyn_peer[227] 	lookupStabilitySig:mean 	0.71775063499808
scalar Network.dyn_peer[227] 	lookupHopsSig:mean 	27.333333333333
scalar Network.dyn_peer[228] 	lookupTimeSig:mean 	2.5166666666667
scalar Network.dyn_peer[228] 	lookupStabilitySig:mean 	0.65419617171089
scalar Network.dyn_peer[228] 	lookupHopsSig:mean 	24.333333333333
scalar Network.dyn_peer[229] 	lookupTimeSig:mean 	2.4
scalar Network.dyn_peer[229] 	lookupStabilitySig:mean 	0.71828849862019
scalar Network.dyn_peer[229] 	lookupHopsSig:mean 	23.333333333333
scalar Network.dyn_peer[230] 	lookupTimeSig:mean 	1.2454545454545
scalar Network.dyn_peer[230] 	lookupStabilitySig:mean 	0.70621133629571
scalar Network.dyn_peer[230] 	lookupHopsSig:mean 	11.545454545455
scalar Network.dyn_peer[231] 	lookupTimeSig:mean 	1.5642857142857
scalar Network.dyn_peer[231] 	lookupStabilitySig:mean 	0.73668653624398
scalar Network.dyn_peer[231] 	lookupHopsSig:mean 	14.714285714286
scalar Network.dyn_peer[232] 	lookupTimeSig:mean 	1.8833333333333
scalar Network.dyn_peer[232] 	lookupStabilitySig:mean 	0.72156590720018
scalar Network.dyn_peer[232] 	lookupHopsSig:mean 	18
scalar Network.dyn_peer[233] 	lookupTimeSig:mean 	2
scalar Network.dyn_peer[233] 	lookupStabilitySig:mean 	0.82753946166486
scalar Network.dyn_peer[233] 	lookupHopsSig:mean 	19.2
scalar Network.dyn_peer[234] 	lookupTimeSig:mean 	1.6285714285714
scalar Network.dyn_peer[234] 	lookupStabilitySig:mean 	0.78852764250977
scalar Network.dyn_peer[234] 	lookupHopsSig:mean 	15.428571428571
scalar Network.dyn_peer[235] 	lookupTimeSig:mean 	2.775
scalar Network.dyn_peer[235] 	lookupStabilitySig:mean 	0.91113261017017
scalar Network.dyn_peer[235] 	lookupHopsSig:mean 	27
scalar Network.dyn_peer[236] 	lookupTimeSig:mean 	2.1333333333333
scalar Network.dyn_peer[236] 	lookupStabilitySig:mean 	0.26782544950644
scalar Network.dyn_peer[236] 	lookupHopsSig:mean 	20.666666666667
scalar Network.dyn_peer[237] 	lookupTimeSig:mean 	2
scalar Network.dyn_peer[237] 	lookupStabilitySig:mean 	0.94626057967544
scalar Network.dyn_peer[237] 	lookupHopsSig:mean 	19.1
scalar Network.dyn_peer[238] 	lookupTimeSig:mean 	2.06
scalar Network.dyn_peer[238] 	lookupStabilitySig:mean 	0.36348078101873
scalar Network.dyn_peer[238] 	lookupHopsSig:mean 	19.8
scalar Network.dyn_peer[239] 	lookupTimeSig:mean 	2.1666666666667
scalar Network.dyn_peer[239] 	lookupStabilitySig:mean 	0.74021911093344
scalar Network.dyn_peer[239] 	lookupHopsSig:mean 	20.833333333333
scalar Network.dyn_peer[240] 	lookupTimeSig:mean 	1.4416666666667
scalar Network.dyn_peer[240] 	lookupStabilitySig:mean 	0.91343892877921
scalar Network.dyn_peer[240] 	lookupHopsSig:mean 	13.5
scalar Network.dyn_peer[241] 	lookupTimeSig:mean 	1.51
scalar Network.dyn_peer[241] 	lookupStabilitySig:mean 	0.72510035792366
scalar Network.dyn_peer[241] 	lookupHopsSig:mean 	14.2
scalar Network.dyn_peer[242] 	lookupTimeSig:mean 	2.2142857142857
scalar Network.dyn_peer[242] 	lookupStabilitySig:mean 	0.86331975506619
scalar Network.dyn_peer[242] 	lookupHopsSig:mean 	21.285714285714
scalar Network.dyn_peer[243] 	lookupTimeSig:mean 	1.325
scalar Network.dyn_peer[243] 	lookupStabilitySig:mean 	0.26324834860861
scalar Network.dyn_peer[243] 	lookupHopsSig:mean 	12.5
scalar Network.dyn_peer[244] 	lookupTimeSig:mean 	1.9
scalar Network.dyn_peer[244] 	lookupStabilitySig:mean 	0.95842991668421
scalar Network.dyn_peer[244] 	lookupHopsSig:mean 	18.083333333333
scalar Network.dyn_peer[245] 	lookupTimeSig:mean 	2.325
scalar Network.dyn_peer[245] 	lookupStabilitySig:mean 	0.86505374778062
scalar Network.dyn_peer[245] 	lookupHopsSig:mean 	22.375
scalar Network.dyn_peer[246] 	lookupTimeSig:mean 	2.2
scalar Network.dyn_peer[246] 	lookupStabilitySig:mean 	-0.056574150919914
scalar Network.dyn_peer[246] 	lookupHopsSig:mean 	21.333333333333
scalar Network.dyn_peer[247] 	lookupTimeSig:mean 	1.2333333333333
scalar Network.dyn_peer[247] 	lookupStabilitySig:mean 	0.43013777242353
scalar Network.dyn_peer[247] 	lookupHopsSig:mean 	11.5
scalar Network.dyn_peer[248] 	lookupTimeSig:mean 	3.55
scalar Network.dyn_peer[248] 	lookupStabilitySig:mean 	0.74858329398558
scalar Network.dyn_peer[248] 	lookupHopsSig:mean 	34.75
scalar Network.dyn_peer[249] 	lookupTimeSig:mean 	1.8666666666667
scalar Network.dyn_peer[249] 	lookupStabilitySig:mean 	-0.088642939925194
scalar Network.dyn_peer[249] 	lookupHopsSig:mean 	18
scalar Network.dyn_peer[250] 	lookupTimeSig:mean 	1.6375
scalar Network.dyn_peer[250] 	lookupStabilitySig:mean 	0.9393486949848
scalar Network.dyn_peer[250] 	lookupHopsSig:mean 	15.5
scalar Network.dyn_peer[251] 	lookupTimeSig:mean 	1.9714285714286
scalar Network.dyn_peer[251] 	lookupStabilitySig:mean 	0.92550652447556
scalar Network.dyn_peer[251] 	lookupHopsSig:mean 	18.857142857143
scalar Network.dyn_peer[252] 	lookupTimeSig:mean 	2.18
scalar Network.dyn_peer[252] 	lookupStabilitySig:mean 	0.50365302190185
scalar Network.dyn_peer[252] 	lookupHopsSig:mean 	21
scalar Network.dyn_peer[253] 	lookupTimeSig:mean 	1.9666666666667
scalar Network.dyn_peer[253] 	lookupStabilitySig:mean 	0.80220406140304
scalar Network.dyn_peer[253] 	lookupHopsSig:mean 	18.777777777778
scalar Network.dyn_peer[254] 	lookupTimeSig:mean 	2.15
scalar Network.dyn_peer[254] 	lookupStabilitySig:mean 	0.53456729836762
scalar Network.dyn_peer[254] 	lookupHopsSig:mean 	20.75
scalar Network.dyn_peer[255] 	lookupTimeSig:mean 	2.7333333333333
scalar Network.dyn_peer[255] 	lookupStabilitySig:mean 	0.64171313742797
scalar Network.dyn_peer[255] 	lookupHopsSig:mean 	26.666666666667
scalar Network.dyn_peer[256] 	lookupTimeSig:mean 	3.7333333333333
scalar Network.dyn_peer[256] 	lookupStabilitySig:mean 	-0.18333333730698
scalar Network.dyn_peer[256] 	lookupHopsSig:mean 	36.666666666667
scalar Network.dyn_peer[257] 	lookupTimeSig:mean 	1.5
scalar Network.dyn_peer[257] 	lookupStabilitySig:mean 	0.75530180335045
scalar Network.dyn_peer[257] 	lookupHopsSig:mean 	14.166666666667
scalar Network.dyn_peer[258] 	lookupTimeSig:mean 	1.84
scalar Network.dyn_peer[258] 	lookupStabilitySig:mean 	0.51454727575183
scalar Network.dyn_peer[258] 	lookupHopsSig:mean 	17.6
scalar Network.dyn_peer[259] 	lookupTimeSig:mean 	1.5625
scalar Network.dyn_peer[259] 	lookupStabilitySig:mean 	0.8903096554568
scalar Network.dyn_peer[259] 	lookupHopsSig:mean 	14.75
scalar Network.dyn_peer[260] 	lookupTimeSig:mean 	0.93333333333333
scalar Network.dyn_peer[260] 	lookupStabilitySig:mean 	0.41617890478422
scalar Network.dyn_peer[260] 	lookupHopsSig:mean 	8.5
scalar Network.dyn_peer[261] 	lookupTimeSig:mean 	3.5333333333333
scalar Network.dyn_peer[261] 	lookupStabilitySig:mean 	0.72800849626462
scalar Network.dyn_peer[261] 	lookupHopsSig:mean 	34.666666666667
scalar Network.dyn_peer[262] 	lookupTimeSig:mean 	1.75
scalar Network.dyn_peer[262] 	lookupStabilitySig:mean 	0.38400874845684
scalar Network.dyn_peer[262] 	lookupHopsSig:mean 	16.75
scalar Network.dyn_peer[263] 	lookupTimeSig:mean 	1.5857142857143
scalar Network.dyn_peer[263] 	lookupStabilitySig:mean 	0.83937131453838
scalar Network.dyn_peer[263] 	lookupHopsSig:mean 	15
scalar Network.dyn_peer[264] 	lookupTimeSig:mean 	0.71428571428571
scalar Network.dyn_peer[264] 	lookupStabilitySig:mean 	0.42777529944267
scalar Network.dyn_peer[264] 	lookupHopsSig:mean 	6.2857142857143
scalar Network.dyn_peer[265] 	lookupTimeSig:mean 	1.3181818181818
scalar Network.dyn_peer[265] 	lookupStabilitySig:mean 	0.89162346392616
scalar Network.dyn_peer[265] 	lookupHopsSig:mean 	12.272727272727
scalar Network.dyn_peer[266] 	lookupTimeSig:mean 	2.6571428571429
scalar Network.dyn_peer[266] 	lookupStabilitySig:mean 	0.95073031141822
scalar Network.dyn_peer[266] 	lookupHopsSig:mean 	25.714285714286
scalar Network.dyn_peer[267] 	lookupTimeSig:mean 	3.7
scalar Network.dyn_peer[267] 	lookupStabilitySig:mean 	-0.4638501778245
scalar Network.dyn_peer[267] 	lookupHopsSig:mean 	36.5
scalar Network.dyn_peer[268] 	lookupTimeSig:mean 	1.0833333333333
scalar Network.dyn_peer[268] 	lookupStabilitySig:mean 	0.44116603800406
scalar Network.dyn_peer[268] 	lookupHopsSig:mean 	10
scalar Network.dyn_peer[269] 	lookupTimeSig:mean 	2.85
scalar Network.dyn_peer[269] 	lookupStabilitySig:mean 	-0.53725488483906
scalar Network.dyn_peer[269] 	lookupHopsSig:mean 	28
scalar Network.dyn_peer[270] 	lookupTimeSig:mean 	1.875
scalar Network.dyn_peer[270] 	lookupStabilitySig:mean 	0.80361463874578
scalar Network.dyn_peer[270] 	lookupHopsSig:mean 	18
scalar Network.dyn_peer[271] 	lookupTimeSig:mean 	1.65
scalar Network.dyn_peer[271] 	lookupStabilitySig:mean 	0.546890920843
scalar Network.dyn_peer[271] 	lookupHopsSig:mean 	15.75
scalar Network.dyn_peer[272] 	lookupTimeSig:mean 	2.2285714285714
scalar Network.dyn_peer[272] 	lookupStabilitySig:mean 	0.9535544456781
scalar Network.dyn_peer[272] 	lookupHopsSig:mean 	21.428571428571
scalar Network.dyn_peer[273] 	lookupTimeSig:mean 	1
scalar Network.dyn_peer[273] 	lookupStabilitySig:mean 	0.31915844976902
scalar Network.dyn_peer[273] 	lookupHopsSig:mean 	9.2
scalar Network.dyn_peer[274] 	lookupTimeSig:mean 	2.2777777777778
scalar Network.dyn_peer[274] 	lookupStabilitySig:mean 	0.89163125021797
scalar Network.dyn_peer[274] 	lookupHopsSig:mean 	21.888888888889
scalar Network.dyn_peer[275] 	lookupTimeSig:mean 	0.88
scalar Network.dyn_peer[275] 	lookupStabilitySig:mean 	0.67387624524999
scalar Network.dyn_peer[275] 	lookupHopsSig:mean 	7.9
scalar Network.dyn_peer[276] 	lookupTimeSig:mean 	1.8142857142857
scalar Network.dyn_peer[276] 	lookupStabilitySig:mean 	0.95449088992817
scalar Network.dyn_peer[276] 	lookupHopsSig:mean 	17.285714285714
scalar Network.dyn_peer[277] 	lookupTimeSig:mean 	3
scalar Network.dyn_peer[277] 	lookupStabilitySig:mean 	0.71372260649999
scalar Network.dyn_peer[277] 	lookupHopsSig:mean 	29.333333333333
scalar Network.dyn_peer[278] 	lookupTimeSig:mean 	1.7
scalar Network.dyn_peer[278] 	lookupStabilitySig:mean 	0.68816869705915
scalar Network.dyn_peer[278] 	lookupHopsSig:mean 	16.25
scalar Network.dyn_peer[279] 	lookupTimeSig:mean 	1.8416666666667
scalar Network.dyn_peer[279] 	lookupStabilitySig:mean 	0.94464984140359
scalar Network.dyn_peer[279] 	lookupHopsSig:mean 	17.5
scalar Network.dyn_peer[280] 	lookupTimeSig:mean 	3.25
scalar Network.dyn_peer[280] 	lookupStabilitySig:mean 	0.86874905880541
scalar Network.dyn_peer[280] 	lookupHopsSig:mean 	31.75
scalar Network.dyn_peer[281] 	lookupTimeSig:mean 	3.4666666666667
scalar Network.dyn_peer[281] 	lookupStabilitySig:mean 	0.64600520456831
scalar Network.dyn_peer[281] 	lookupHopsSig:mean 	34
scalar Network.dyn_peer[282] 	lookupTimeSig:mean 	2.85
scalar Network.dyn_peer[282] 	lookupStabilitySig:mean 	0.55079364031553
scalar Network.dyn_peer[282] 	lookupHopsSig:mean 	28
scalar Network.dyn_peer[283] 	lookupTimeSig:mean 	2.3
scalar Network.dyn_peer[283] 	lookupStabilitySig:mean 	0.87882620580494
scalar Network.dyn_peer[283] 	lookupHopsSig:mean 	22.2
scalar Network.dyn_peer[284] 	lookupTimeSig:mean 	2.675
scalar Network.dyn_peer[284] 	lookupStabilitySig:mean 	0.30450910096988
scalar Network.dyn_peer[284] 	lookupHopsSig:mean 	26
scalar Network.dyn_peer[285] 	lookupTimeSig:mean 	1.3428571428571
scalar Network.dyn_peer[285] 	lookupStabilitySig:mean 	0.66375319021089
scalar Network.dyn_peer[285] 	lookupHopsSig:mean 	12.571428571429
scalar Network.dyn_peer[286] 	lookupTimeSig:mean 	1.3454545454545
scalar Network.dyn_peer[286] 	lookupStabilitySig:mean 	0.95196004652164
scalar Network.dyn_peer[286] 	lookupHopsSig:mean 	12.545454545455
scalar Network.dyn_peer[287] 	lookupTimeSig:mean 	1.3714285714286
scalar Network.dyn_peer[287] 	lookupStabilitySig:mean 	0.78202061730969
scalar Network.dyn_peer[287] 	lookupHopsSig:mean 	12.785714285714
scalar Network.dyn_peer[288] 	lookupTimeSig:mean 	1.9571428571429
scalar Network.dyn_peer[288] 	lookupStabilitySig:mean 	0.89281956159643
scalar Network.dyn_peer[288] 	lookupHopsSig:mean 	18.714285714286
scalar Network.dyn_peer[289] 	lookupTimeSig:mean 	2.5666666666667
scalar Network.dyn_peer[289] 	lookupStabilitySig:mean 	0.71031311402718
scalar Network.dyn_peer[289] 	lookupHopsSig:mean 	25
scalar Network.dyn_peer[290] 	lookupTimeSig:mean 	2
scalar Network.dyn_peer[290] 	lookupStabilitySig:mean 	0.83722842335701
scalar Network.dyn_peer[290] 	lookupHopsSig:mean 	19.2
scalar Network.dyn_peer[291] 	lookupTimeSig:mean 	1.3444444444444
scalar Network.dyn_peer[291] 	lookupStabilitySig:mean 	0.87096852079655
scalar Network.dyn_peer[291] 	lookupHopsSig:mean 	12.555555555556
scalar Network.dyn_peer[292] 	lookupTimeSig:mean 	2.7
scalar Network.dyn_peer[292] 	lookupStabilitySig:mean 	0.035449728369713
scalar Network.dyn_peer[292] 	lookupHopsSig:mean 	26.5
scalar Network.dyn_peer[293] 	lookupTimeSig:mean 	2.48
scalar Network.dyn_peer[293] 	lookupStabilitySig:mean 	0.92809899933636
scalar Network.dyn_peer[293] 	lookupHopsSig:mean 	24
scalar Network.dyn_peer[294] 	lookupTimeSig:mean 	2.3
scalar Network.dyn_peer[294] 	lookupStabilitySig:mean 	0.73966011628509
scalar Network.dyn_peer[294] 	lookupHopsSig:mean 	22.2
scalar Network.dyn_peer[295] 	lookupTimeSig:mean 	2
scalar Network.dyn_peer[295] 	lookupStabilitySig:mean 	0.73139298511669
scalar Network.dyn_peer[295] 	lookupHopsSig:mean 	19.2
scalar Network.dyn_peer[296] 	lookupTimeSig:mean 	2.325
scalar Network.dyn_peer[296] 	lookupStabilitySig:mean 	0.91809356142767
scalar Network.dyn_peer[296] 	lookupHopsSig:mean 	22.375
scalar Network.dyn_peer[297] 	lookupTimeSig:mean 	1.78
scalar Network.dyn_peer[297] 	lookupStabilitySig:mean 	0.56926593407989
scalar Network.dyn_peer[297] 	lookupHopsSig:mean 	17
scalar Network.dyn_peer[298] 	lookupTimeSig:mean 	1.26
scalar Network.dyn_peer[298] 	lookupStabilitySig:mean 	0.270753210783
scalar Network.dyn_peer[298] 	lookupHopsSig:mean 	11.8
scalar Network.dyn_peer[299] 	lookupTimeSig:mean 	1.8416666666667
scalar Network.dyn_peer[299] 	lookupStabilitySig:mean 	0.85990893212147
scalar Network.dyn_peer[299] 	lookupHopsSig:mean 	17.5
scalar Network.dyn_peer[300] 	lookupTimeSig:mean 	2.28
scalar Network.dyn_peer[300] 	lookupStabilitySig:mean 	0.3321829892695
scalar Network.dyn_peer[300] 	lookupHopsSig:mean 	22
scalar Network.dyn_peer[301] 	lookupTimeSig:mean 	2.4666666666667
scalar Network.dyn_peer[301] 	lookupStabilitySig:mean 	0.935337533243
scalar Network.dyn_peer[301] 	lookupHopsSig:mean 	23.833333333333
scalar Network.dyn_peer[302] 	lookupTimeSig:mean 	2.8
scalar Network.dyn_peer[302] 	lookupStabilitySig:mean 	-0.47959178686142
scalar Network.dyn_peer[302] 	lookupHopsSig:mean 	27.5
scalar Network.dyn_peer[303] 	lookupTimeSig:mean 	1.4
scalar Network.dyn_peer[303] 	lookupStabilitySig:mean 	0.18887857161462
scalar Network.dyn_peer[303] 	lookupHopsSig:mean 	13.25
scalar Network.dyn_peer[304] 	lookupTimeSig:mean 	1.5111111111111
scalar Network.dyn_peer[304] 	lookupStabilitySig:mean 	0.65924716057877
scalar Network.dyn_peer[304] 	lookupHopsSig:mean 	14.222222222222
scalar Network.dyn_peer[305] 	lookupTimeSig:mean 	1.9125
scalar Network.dyn_peer[305] 	lookupStabilitySig:mean 	0.94171977927908
scalar Network.dyn_peer[305] 	lookupHopsSig:mean 	18.25
scalar Network.dyn_peer[306] 	lookupTimeSig:mean 	1.66
scalar Network.dyn_peer[306] 	lookupStabilitySig:mean 	0.85761384963989
scalar Network.dyn_peer[306] 	lookupHopsSig:mean 	15.8
scalar Network.dyn_peer[307] 	lookupTimeSig:mean 	2.2
scalar Network.dyn_peer[307] 	lookupStabilitySig:mean 	0.13826682666938
scalar Network.dyn_peer[307] 	lookupHopsSig:mean 	21.333333333333
scalar Network.dyn_peer[308] 	lookupTimeSig:mean 	0.9
scalar Network.dyn_peer[308] 	lookupStabilitySig:mean 	0.024260667463144
scalar Network.dyn_peer[308] 	lookupHopsSig:mean 	8.3333333333333
scalar Network.dyn_peer[309] 	lookupTimeSig:mean 	1.62
scalar Network.dyn_peer[309] 	lookupStabilitySig:mean 	0.82885409742594
scalar Network.dyn_peer[309] 	lookupHopsSig:mean 	15.4
scalar Network.dyn_peer[310] 	lookupTimeSig:mean 	1.75
scalar Network.dyn_peer[310] 	lookupStabilitySig:mean 	-0.44249999523163
scalar Network.dyn_peer[310] 	lookupHopsSig:mean 	17
scalar Network.dyn_peer[311] 	lookupTimeSig:mean 	1.3909090909091
scalar Network.dyn_peer[311] 	lookupStabilitySig:mean 	0.69280889566818
scalar Network.dyn_peer[311] 	lookupHopsSig:mean 	13
scalar Network.dyn_peer[312] 	lookupTimeSig:mean 	2.775
scalar Network.dyn_peer[312] 	lookupStabilitySig:mean 	0.79496823716909
scalar Network.dyn_peer[312] 	lookupHopsSig:mean 	27
scalar Network.dyn_peer[313] 	lookupTimeSig:mean 	1.9333333333333
scalar Network.dyn_peer[313] 	lookupStabilitySig:mean 	0.91142434122351
scalar Network.dyn_peer[313] 	lookupHopsSig:mean 	18.444444444444
scalar Network.dyn_peer[314] 	lookupTimeSig:mean 	3.25
scalar Network.dyn_peer[314] 	lookupStabilitySig:mean 	0.5665275529027
scalar Network.dyn_peer[314] 	lookupHopsSig:mean 	32
scalar Network.dyn_peer[315] 	lookupTimeSig:mean 	2.28
scalar Network.dyn_peer[315] 	lookupStabilitySig:mean 	0.8584229817614
scalar Network.dyn_peer[315] 	lookupHopsSig:mean 	22
scalar Network.dyn_peer[316] 	lookupTimeSig:mean 	3.1
scalar Network.dyn_peer[316] 	lookupStabilitySig:mean 	0.24533107876778
scalar Network.dyn_peer[316] 	lookupHopsSig:mean 	30.5
scalar Network.dyn_peer[317] 	lookupTimeSig:mean 	1.36
scalar Network.dyn_peer[317] 	lookupStabilitySig:mean 	0.42580589801073
scalar Network.dyn_peer[317] 	lookupHopsSig:mean 	12.8
scalar Network.dyn_peer[318] 	lookupTimeSig:mean 	1.3285714285714
scalar Network.dyn_peer[318] 	lookupStabilitySig:mean 	0.49549772191261
scalar Network.dyn_peer[318] 	lookupHopsSig:mean 	12.428571428571
scalar Network.dyn_peer[319] 	lookupTimeSig:mean 	2.625
scalar Network.dyn_peer[319] 	lookupStabilitySig:mean 	0.27563657984138
scalar Network.dyn_peer[319] 	lookupHopsSig:mean 	25.5
scalar Network.dyn_peer[320] 	lookupTimeSig:mean 	1.5333333333333
scalar Network.dyn_peer[320] 	lookupStabilitySig:mean 	0.66172123555508
scalar Network.dyn_peer[320] 	lookupHopsSig:mean 	14.444444444444
scalar Network.dyn_peer[321] 	lookupTimeSig:mean 	1.6636363636364
scalar Network.dyn_peer[321] 	lookupStabilitySig:mean 	0.70522605805573
scalar Network.dyn_peer[321] 	lookupHopsSig:mean 	15.727272727273
scalar Network.dyn_peer[322] 	lookupTimeSig:mean 	2.1777777777778
scalar Network.dyn_peer[322] 	lookupStabilitySig:mean 	0.96632394812898
scalar Network.dyn_peer[322] 	lookupHopsSig:mean 	20.888888888889
scalar Network.dyn_peer[323] 	lookupTimeSig:mean 	1.3666666666667
scalar Network.dyn_peer[323] 	lookupStabilitySig:mean 	-0.2057022601366
scalar Network.dyn_peer[323] 	lookupHopsSig:mean 	13
scalar Network.dyn_peer[324] 	lookupTimeSig:mean 	2.8
scalar Network.dyn_peer[324] 	lookupStabilitySig:mean 	0.95006502280012
scalar Network.dyn_peer[324] 	lookupHopsSig:mean 	27.125
scalar Network.dyn_peer[325] 	lookupTimeSig:mean 	1.44
scalar Network.dyn_peer[325] 	lookupStabilitySig:mean 	0.56226154118776
scalar Network.dyn_peer[325] 	lookupHopsSig:mean 	13.6
scalar Network.dyn_peer[326] 	lookupTimeSig:mean 	3.25
scalar Network.dyn_peer[326] 	lookupStabilitySig:mean 	0.58814235776663
scalar Network.dyn_peer[326] 	lookupHopsSig:mean 	32
scalar Network.dyn_peer[327] 	lookupTimeSig:mean 	1.2333333333333
scalar Network.dyn_peer[327] 	lookupStabilitySig:mean 	-0.056140383084615
scalar Network.dyn_peer[327] 	lookupHopsSig:mean 	11.666666666667
scalar Network.dyn_peer[328] 	lookupTimeSig:mean 	1.82
scalar Network.dyn_peer[328] 	lookupStabilitySig:mean 	0.82622656598687
scalar Network.dyn_peer[328] 	lookupHopsSig:mean 	17.3
scalar Network.dyn_peer[329] 	lookupTimeSig:mean 	1.6375
scalar Network.dyn_peer[329] 	lookupStabilitySig:mean 	0.56533281994052
scalar Network.dyn_peer[329] 	lookupHopsSig:mean 	15.5
scalar Network.dyn_peer[330] 	lookupTimeSig:mean 	3.75
scalar Network.dyn_peer[330] 	lookupStabilitySig:mean 	-0.30947053432465
scalar Network.dyn_peer[330] 	lookupHopsSig:mean 	37
scalar Network.dyn_peer[331] 	lookupTimeSig:mean 	2.6428571428571
scalar Network.dyn_peer[331] 	lookupStabilitySig:mean 	0.94366186764091
scalar Network.dyn_peer[331] 	lookupHopsSig:mean 	25.571428571429
scalar Network.dyn_peer[332] 	lookupTimeSig:mean 	1.425
scalar Network.dyn_peer[332] 	lookupStabilitySig:mean 	0.93245892063715
scalar Network.dyn_peer[332] 	lookupHopsSig:mean 	13.375
scalar Network.dyn_peer[333] 	lookupTimeSig:mean 	4.5333333333333
scalar Network.dyn_peer[333] 	lookupStabilitySig:mean 	0.90555181354284
scalar Network.dyn_peer[333] 	lookupHopsSig:mean 	44.666666666667
scalar Network.dyn_peer[334] 	lookupTimeSig:mean 	1.65
scalar Network.dyn_peer[334] 	lookupStabilitySig:mean 	0.72911697564026
scalar Network.dyn_peer[334] 	lookupHopsSig:mean 	15.666666666667
scalar Network.dyn_peer[335] 	lookupTimeSig:mean 	1.225
scalar Network.dyn_peer[335] 	lookupStabilitySig:mean 	0.67643223702908
scalar Network.dyn_peer[335] 	lookupHopsSig:mean 	11.5
scalar Network.dyn_peer[336] 	lookupTimeSig:mean 	2.5333333333333
scalar Network.dyn_peer[336] 	lookupStabilitySig:mean 	0.89254295639694
scalar Network.dyn_peer[336] 	lookupHopsSig:mean 	24.5
scalar Network.dyn_peer[337] 	lookupTimeSig:mean 	1.2090909090909
scalar Network.dyn_peer[337] 	lookupStabilitySig:mean 	0.86754843093116
scalar Network.dyn_peer[337] 	lookupHopsSig:mean 	11.181818181818
scalar Network.dyn_peer[338] 	lookupTimeSig:mean 	1.775
scalar Network.dyn_peer[338] 	lookupStabilitySig:mean 	0.72346799727529
scalar Network.dyn_peer[338] 	lookupHopsSig:mean 	17
scalar Network.dyn_peer[339] 	lookupTimeSig:mean 	1.4
scalar Network.dyn_peer[339] 	lookupStabilitySig:mean 	0.49197039194405
scalar Network.dyn_peer[339] 	lookupHopsSig:mean 	13.166666666667
scalar Network.dyn_peer[340] 	lookupTimeSig:mean 	1.7666666666667
scalar Network.dyn_peer[340] 	lookupStabilitySig:mean 	0.74135338080426
scalar Network.dyn_peer[340] 	lookupHopsSig:mean 	16.833333333333
scalar Network.dyn_peer[341] 	lookupTimeSig:mean 	1.46
scalar Network.dyn_peer[341] 	lookupStabilitySig:mean 	0.22864726781845
scalar Network.dyn_peer[341] 	lookupHopsSig:mean 	13.8
scalar Network.dyn_peer[342] 	lookupTimeSig:mean 	2.6
scalar Network.dyn_peer[342] 	lookupStabilitySig:mean 	-0.046272521217664
scalar Network.dyn_peer[342] 	lookupHopsSig:mean 	25.333333333333
scalar Network.dyn_peer[343] 	lookupTimeSig:mean 	0.85
scalar Network.dyn_peer[343] 	lookupStabilitySig:mean 	0.28883177414536
scalar Network.dyn_peer[343] 	lookupHopsSig:mean 	7.75
scalar Network.dyn_peer[344] 	lookupTimeSig:mean 	2.2857142857143
scalar Network.dyn_peer[344] 	lookupStabilitySig:mean 	0.94741787076262
scalar Network.dyn_peer[344] 	lookupHopsSig:mean 	22
scalar Network.dyn_peer[345] 	lookupTimeSig:mean 	1.69
scalar Network.dyn_peer[345] 	lookupStabilitySig:mean 	0.95579636567272
scalar Network.dyn_peer[345] 	lookupHopsSig:mean 	16
scalar Network.dyn_peer[346] 	lookupTimeSig:mean 	1.4
scalar Network.dyn_peer[346] 	lookupStabilitySig:mean 	0.35958483722061
scalar Network.dyn_peer[346] 	lookupHopsSig:mean 	13.2
scalar Network.dyn_peer[347] 	lookupTimeSig:mean 	2.1666666666667
scalar Network.dyn_peer[347] 	lookupStabilitySig:mean 	-0.037937636176745
scalar Network.dyn_peer[347] 	lookupHopsSig:mean 	21
scalar Network.dyn_peer[348] 	lookupTimeSig:mean 	2.1666666666667
scalar Network.dyn_peer[348] 	lookupStabilitySig:mean 	0.57152341554562
scalar Network.dyn_peer[348] 	lookupHopsSig:mean 	21
scalar Network.dyn_peer[349] 	lookupTimeSig:mean 	2.1666666666667
scalar Network.dyn_peer[349] 	lookupStabilitySig:mean 	0.73982924595475
scalar Network.dyn_peer[349] 	lookupHopsSig:mean 	21
scalar Network.dyn_peer[350] 	lookupTimeSig:mean 	1.7428571428571
scalar Network.dyn_peer[350] 	lookupStabilitySig:mean 	0.78114319938634
scalar Network.dyn_peer[350] 	lookupHopsSig:mean 	16.571428571429
scalar Network.dyn_peer[351] 	lookupTimeSig:mean 	2.4833333333333
scalar Network.dyn_peer[351] 	lookupStabilitySig:mean 	0.91394527784238
scalar Network.dyn_peer[351] 	lookupHopsSig:mean 	24
scalar Network.dyn_peer[352] 	lookupTimeSig:mean 	1.95
scalar Network.dyn_peer[352] 	lookupStabilitySig:mean 	0.92945028096437
scalar Network.dyn_peer[352] 	lookupHopsSig:mean 	18.625
scalar Network.dyn_peer[353] 	lookupTimeSig:mean 	1.5454545454545
scalar Network.dyn_peer[353] 	lookupStabilitySig:mean 	0.75998234782707
scalar Network.dyn_peer[353] 	lookupHopsSig:mean 	14.545454545455
scalar Network.dyn_peer[354] 	lookupTimeSig:mean 	2.16
scalar Network.dyn_peer[354] 	lookupStabilitySig:mean 	0.85555225368589
scalar Network.dyn_peer[354] 	lookupHopsSig:mean 	20.8
scalar Network.dyn_peer[355] 	lookupTimeSig:mean 	3.5
scalar Network.dyn_peer[355] 	lookupStabilitySig:mean 	0.9034240366891
scalar Network.dyn_peer[355] 	lookupHopsSig:mean 	34.25
scalar Network.dyn_peer[356] 	lookupTimeSig:mean 	1.11
scalar Network.dyn_peer[356] 	lookupStabilitySig:mean 	0.86317751912866
scalar Network.dyn_peer[356] 	lookupHopsSig:mean 	10.15
scalar Network.dyn_peer[357] 	lookupTimeSig:mean 	2.3285714285714
scalar Network.dyn_peer[357] 	lookupStabilitySig:mean 	0.9296036328056
scalar Network.dyn_peer[357] 	lookupHopsSig:mean 	22.428571428571
scalar Network.dyn_peer[358] 	lookupTimeSig:mean 	2.1
scalar Network.dyn_peer[358] 	lookupStabilitySig:mean 	0.95469974478086
scalar Network.dyn_peer[358] 	lookupHopsSig:mean 	20.111111111111
scalar Network.dyn_peer[359] 	lookupTimeSig:mean 	3.2
scalar Network.dyn_peer[359] 	lookupStabilitySig:mean 	0.87893234472722
scalar Network.dyn_peer[359] 	lookupHopsSig:mean 	31.25
scalar Network.dyn_peer[360] 	lookupTimeSig:mean 	2.05
scalar Network.dyn_peer[360] 	lookupStabilitySig:mean 	0.65960590355098
scalar Network.dyn_peer[360] 	lookupHopsSig:mean 	20
scalar Network.dyn_peer[361] 	lookupTimeSig:mean 	1.86
scalar Network.dyn_peer[361] 	lookupStabilitySig:mean 	0.61232442036271
scalar Network.dyn_peer[361] 	lookupHopsSig:mean 	17.8
scalar Network.dyn_peer[362] 	lookupTimeSig:mean 	1.6666666666667
scalar Network.dyn_peer[362] 	lookupStabilitySig:mean 	0.92112629394978
scalar Network.dyn_peer[362] 	lookupHopsSig:mean 	15.777777777778
scalar Network.dyn_peer[363] 	lookupTimeSig:mean 	1.7615384615385
scalar Network.dyn_peer[363] 	lookupStabilitySig:mean 	0.95017573128168
scalar Network.dyn_peer[363] 	lookupHopsSig:mean 	16.692307692308
scalar Network.dyn_peer[364] 	lookupTimeSig:mean 	2.48
scalar Network.dyn_peer[364] 	lookupStabilitySig:mean 	0.60020335707813
scalar Network.dyn_peer[364] 	lookupHopsSig:mean 	24
scalar Network.dyn_peer[365] 	lookupTimeSig:mean 	1.925
scalar Network.dyn_peer[365] 	lookupStabilitySig:mean 	0.060088666155934
scalar Network.dyn_peer[365] 	lookupHopsSig:mean 	18.5
scalar Network.dyn_peer[366] 	lookupTimeSig:mean 	2.3
scalar Network.dyn_peer[366] 	lookupStabilitySig:mean 	0.84499832550064
scalar Network.dyn_peer[366] 	lookupHopsSig:mean 	22.2
scalar Network.dyn_peer[367] 	lookupTimeSig:mean 	1.9875
scalar Network.dyn_peer[367] 	lookupStabilitySig:mean 	0.90041971817845
scalar Network.dyn_peer[367] 	lookupHopsSig:mean 	19
scalar Network.dyn_peer[368] 	lookupTimeSig:mean 	2.4
scalar Network.dyn_peer[368] 	lookupStabilitySig:mean 	0.95107982600374
scalar Network.dyn_peer[368] 	lookupHopsSig:mean 	23.142857142857
scalar Network.dyn_peer[369] 	lookupTimeSig:mean 	1.2
scalar Network.dyn_peer[369] 	lookupStabilitySig:mean 	0.23636001845201
scalar Network.dyn_peer[369] 	lookupHopsSig:mean 	11.333333333333
scalar Network.dyn_peer[370] 	lookupTimeSig:mean 	2.8666666666667
scalar Network.dyn_peer[370] 	lookupStabilitySig:mean 	0.66731488456329
scalar Network.dyn_peer[370] 	lookupHopsSig:mean 	28
scalar Network.dyn_peer[371] 	lookupTimeSig:mean 	2.0727272727273
scalar Network.dyn_peer[371] 	lookupStabilitySig:mean 	0.91699383992024
scalar Network.dyn_peer[371] 	lookupHopsSig:mean 	19.818181818182
scalar Network.dyn_peer[372] 	lookupTimeSig:mean 	1.25
scalar Network.dyn_peer[372] 	lookupStabilitySig:mean 	0.74970393577435
scalar Network.dyn_peer[372] 	lookupHopsSig:mean 	11.583333333333
scalar Network.dyn_peer[373] 	lookupTimeSig:mean 	2.6
scalar Network.dyn_peer[373] 	lookupStabilitySig:mean 	0.75118327587843
scalar Network.dyn_peer[373] 	lookupHopsSig:mean 	25.2
scalar Network.dyn_peer[374] 	lookupTimeSig:mean 	2.0916666666667
scalar Network.dyn_peer[374] 	lookupStabilitySig:mean 	0.96997354924679
scalar Network.dyn_peer[374] 	lookupHopsSig:mean 	20
scalar Network.dyn_peer[375] 	lookupTimeSig:mean 	4.0333333333333
scalar Network.dyn_peer[375] 	lookupStabilitySig:mean 	0.91228627227247
scalar Network.dyn_peer[375] 	lookupHopsSig:mean 	39.666666666667
scalar Network.dyn_peer[376] 	lookupTimeSig:mean 	1.475
scalar Network.dyn_peer[376] 	lookupStabilitySig:mean 	0.2302024550736
scalar Network.dyn_peer[376] 	lookupHopsSig:mean 	14
scalar Network.dyn_peer[377] 	lookupTimeSig:mean 	1.375
scalar Network.dyn_peer[377] 	lookupStabilitySig:mean 	0.3019096981734
scalar Network.dyn_peer[377] 	lookupHopsSig:mean 	13
scalar Network.dyn_peer[378] 	lookupTimeSig:mean 	1.9111111111111
scalar Network.dyn_peer[378] 	lookupStabilitySig:mean 	0.93896799296555
scalar Network.dyn_peer[378] 	lookupHopsSig:mean 	18.222222222222
scalar Network.dyn_peer[379] 	lookupTimeSig:mean 	2.54
scalar Network.dyn_peer[379] 	lookupStabilitySig:mean 	0.53865823075175
scalar Network.dyn_peer[379] 	lookupHopsSig:mean 	24.6
scalar Network.dyn_peer[380] 	lookupTimeSig:mean 	1.9166666666667
scalar Network.dyn_peer[380] 	lookupStabilitySig:mean 	0.62947688624263
scalar Network.dyn_peer[380] 	lookupHopsSig:mean 	18.333333333333
scalar Network.dyn_peer[381] 	lookupTimeSig:mean 	2.7
scalar Network.dyn_peer[381] 	lookupStabilitySig:mean 	0.72172242887318
scalar Network.dyn_peer[381] 	lookupHopsSig:mean 	26.2
scalar Network.dyn_peer[382] 	lookupTimeSig:mean 	2.0333333333333
scalar Network.dyn_peer[382] 	lookupStabilitySig:mean 	0.82632069693257
scalar Network.dyn_peer[382] 	lookupHopsSig:mean 	19.666666666667
scalar Network.dyn_peer[383] 	lookupTimeSig:mean 	2.7333333333333
scalar Network.dyn_peer[383] 	lookupStabilitySig:mean 	0.92872944730334
scalar Network.dyn_peer[383] 	lookupHopsSig:mean 	26.5
scalar Network.dyn_peer[384] 	lookupTimeSig:mean 	1.6857142857143
scalar Network.dyn_peer[384] 	lookupStabilitySig:mean 	0.78710375553263
scalar Network.dyn_peer[384] 	lookupHopsSig:mean 	16
scalar Network.dyn_peer[385] 	lookupTimeSig:mean 	1.775
scalar Network.dyn_peer[385] 	lookupStabilitySig:mean 	0.64341618679464
scalar Network.dyn_peer[385] 	lookupHopsSig:mean 	17
scalar Network.dyn_peer[386] 	lookupTimeSig:mean 	1.775
scalar Network.dyn_peer[386] 	lookupStabilitySig:mean 	0.12791101261973
scalar Network.dyn_peer[386] 	lookupHopsSig:mean 	17
scalar Network.dyn_peer[387] 	lookupTimeSig:mean 	1.9166666666667
scalar Network.dyn_peer[387] 	lookupStabilitySig:mean 	0.47969974763691
scalar Network.dyn_peer[387] 	lookupHopsSig:mean 	18.333333333333
scalar Network.dyn_peer[388] 	lookupTimeSig:mean 	1.7666666666667
scalar Network.dyn_peer[388] 	lookupStabilitySig:mean 	-0.12462689975897
scalar Network.dyn_peer[388] 	lookupHopsSig:mean 	17
scalar Network.dyn_peer[389] 	lookupTimeSig:mean 	1.85
scalar Network.dyn_peer[389] 	lookupStabilitySig:mean 	0.48059049993753
scalar Network.dyn_peer[389] 	lookupHopsSig:mean 	18
scalar Network.dyn_peer[390] 	lookupTimeSig:mean 	0.95
scalar Network.dyn_peer[390] 	lookupStabilitySig:mean 	0.8416056764933
scalar Network.dyn_peer[390] 	lookupHopsSig:mean 	8.6666666666667
scalar Network.dyn_peer[391] 	lookupTimeSig:mean 	1.6230769230769
scalar Network.dyn_peer[391] 	lookupStabilitySig:mean 	0.84991623267818
scalar Network.dyn_peer[391] 	lookupHopsSig:mean 	15.307692307692
scalar Network.dyn_peer[392] 	lookupTimeSig:mean 	2.2428571428571
scalar Network.dyn_peer[392] 	lookupStabilitySig:mean 	0.90637607087514
scalar Network.dyn_peer[392] 	lookupHopsSig:mean 	21.571428571429
scalar Network.dyn_peer[393] 	lookupTimeSig:mean 	2.7333333333333
scalar Network.dyn_peer[393] 	lookupStabilitySig:mean 	0.48390006646514
scalar Network.dyn_peer[393] 	lookupHopsSig:mean 	26.666666666667
scalar Network.dyn_peer[394] 	lookupTimeSig:mean 	3.8
scalar Network.dyn_peer[394] 	lookupStabilitySig:mean 	0.80150246247649
scalar Network.dyn_peer[394] 	lookupHopsSig:mean 	37.333333333333
scalar Network.dyn_peer[395] 	lookupTimeSig:mean 	3.5
scalar Network.dyn_peer[395] 	lookupStabilitySig:mean 	0.80661535821855
scalar Network.dyn_peer[395] 	lookupHopsSig:mean 	34.25
scalar Network.dyn_peer[396] 	lookupTimeSig:mean 	1.7333333333333
scalar Network.dyn_peer[396] 	lookupStabilitySig:mean 	0.33386242886384
scalar Network.dyn_peer[396] 	lookupHopsSig:mean 	16.666666666667
scalar Network.dyn_peer[397] 	lookupTimeSig:mean 	2.1
scalar Network.dyn_peer[397] 	lookupStabilitySig:mean 	0.88012895195021
scalar Network.dyn_peer[397] 	lookupHopsSig:mean 	20.111111111111
scalar Network.dyn_peer[398] 	lookupTimeSig:mean 	2.3
scalar Network.dyn_peer[398] 	lookupStabilitySig:mean 	0.66873652487993
scalar Network.dyn_peer[398] 	lookupHopsSig:mean 	22.333333333333
scalar Network.dyn_peer[399] 	lookupTimeSig:mean 	1.8285714285714
scalar Network.dyn_peer[399] 	lookupStabilitySig:mean 	0.84176913356142
scalar Network.dyn_peer[399] 	lookupHopsSig:mean 	17.428571428571
scalar Network.dyn_peer[400] 	lookupTimeSig:mean 	2.4
scalar Network.dyn_peer[400] 	lookupStabilitySig:mean 	-0.042037556568782
scalar Network.dyn_peer[400] 	lookupHopsSig:mean 	23.333333333333
scalar Network.dyn_peer[401] 	lookupTimeSig:mean 	2.375
scalar Network.dyn_peer[401] 	lookupStabilitySig:mean 	0.80322825908661
scalar Network.dyn_peer[401] 	lookupHopsSig:mean 	23
scalar Network.dyn_peer[402] 	lookupTimeSig:mean 	1.3571428571429
scalar Network.dyn_peer[402] 	lookupStabilitySig:mean 	0.83827510981687
scalar Network.dyn_peer[402] 	lookupHopsSig:mean 	12.714285714286
scalar Network.dyn_peer[403] 	lookupTimeSig:mean 	2.375
scalar Network.dyn_peer[403] 	lookupStabilitySig:mean 	0.76208952255547
scalar Network.dyn_peer[403] 	lookupHopsSig:mean 	23
scalar Network.dyn_peer[404] 	lookupTimeSig:mean 	3.35
scalar Network.dyn_peer[404] 	lookupStabilitySig:mean 	0.66858206316829
scalar Network.dyn_peer[404] 	lookupHopsSig:mean 	33
scalar Network.dyn_peer[405] 	lookupTimeSig:mean 	1.5125
scalar Network.dyn_peer[405] 	lookupStabilitySig:mean 	0.79975246579852
scalar Network.dyn_peer[405] 	lookupHopsSig:mean 	14.25
scalar Network.dyn_peer[406] 	lookupTimeSig:mean 	2.4
scalar Network.dyn_peer[406] 	lookupStabilitySig:mean 	0.36670988549789
scalar Network.dyn_peer[406] 	lookupHopsSig:mean 	23.333333333333
scalar Network.dyn_peer[407] 	lookupTimeSig:mean 	1.8714285714286
scalar Network.dyn_peer[407] 	lookupStabilitySig:mean 	0.69310330227017
scalar Network.dyn_peer[407] 	lookupHopsSig:mean 	17.857142857143
scalar Network.dyn_peer[408] 	lookupTimeSig:mean 	1.28
scalar Network.dyn_peer[408] 	lookupStabilitySig:mean 	0.62009711265564
scalar Network.dyn_peer[408] 	lookupHopsSig:mean 	12
scalar Network.dyn_peer[409] 	lookupTimeSig:mean 	2.7
scalar Network.dyn_peer[409] 	lookupStabilitySig:mean 	0.66841047629714
scalar Network.dyn_peer[409] 	lookupHopsSig:mean 	26.5
scalar Network.dyn_peer[410] 	lookupTimeSig:mean 	2.72
scalar Network.dyn_peer[410] 	lookupStabilitySig:mean 	0.87626201882958
scalar Network.dyn_peer[410] 	lookupHopsSig:mean 	26.4
scalar Network.dyn_peer[411] 	lookupTimeSig:mean 	2
scalar Network.dyn_peer[411] 	lookupStabilitySig:mean 	0.84068342236181
scalar Network.dyn_peer[411] 	lookupHopsSig:mean 	19.333333333333
scalar Network.dyn_peer[412] 	lookupTimeSig:mean 	3.2333333333333
scalar Network.dyn_peer[412] 	lookupStabilitySig:mean 	0.098437766854962
scalar Network.dyn_peer[412] 	lookupHopsSig:mean 	31.666666666667
scalar Network.dyn_peer[413] 	lookupTimeSig:mean 	2.275
scalar Network.dyn_peer[413] 	lookupStabilitySig:mean 	0.8860374498181
scalar Network.dyn_peer[413] 	lookupHopsSig:mean 	22
scalar Network.dyn_peer[414] 	lookupTimeSig:mean 	1.26
scalar Network.dyn_peer[414] 	lookupStabilitySig:mean 	0.80701836682856
scalar Network.dyn_peer[414] 	lookupHopsSig:mean 	11.8
scalar Network.dyn_peer[415] 	lookupTimeSig:mean 	1.6333333333333
scalar Network.dyn_peer[415] 	lookupStabilitySig:mean 	0.73258089770873
scalar Network.dyn_peer[415] 	lookupHopsSig:mean 	15.666666666667
scalar Network.dyn_peer[416] 	lookupTimeSig:mean 	1.9214285714286
scalar Network.dyn_peer[416] 	lookupStabilitySig:mean 	0.95952633675188
scalar Network.dyn_peer[416] 	lookupHopsSig:mean 	18.285714285714
scalar Network.dyn_peer[417] 	lookupTimeSig:mean 	2.4333333333333
scalar Network.dyn_peer[417] 	lookupStabilitySig:mean 	0.75250859682759
scalar Network.dyn_peer[417] 	lookupHopsSig:mean 	23.666666666667
scalar Network.dyn_peer[418] 	lookupTimeSig:mean 	1.4666666666667
scalar Network.dyn_peer[418] 	lookupStabilitySig:mean 	0.49097286475201
scalar Network.dyn_peer[418] 	lookupHopsSig:mean 	13.833333333333
scalar Network.dyn_peer[419] 	lookupTimeSig:mean 	0.96666666666667
scalar Network.dyn_peer[419] 	lookupStabilitySig:mean 	0.17592592040698
scalar Network.dyn_peer[419] 	lookupHopsSig:mean 	9
scalar Network.dyn_peer[420] 	lookupTimeSig:mean 	1.9875
scalar Network.dyn_peer[420] 	lookupStabilitySig:mean 	0.64916746667586
[...]
scalar Network.dyn_peer[896] 	lookupTimeSig:mean 	2.7
scalar Network.dyn_peer[896] 	lookupStabilitySig:mean 	0.6603571549058
scalar Network.dyn_peer[896] 	lookupHopsSig:mean 	26.5
scalar Network.dyn_peer[897] 	lookupTimeSig:mean 	2.62
scalar Network.dyn_peer[897] 	lookupStabilitySig:mean 	0.8734333217144
scalar Network.dyn_peer[897] 	lookupHopsSig:mean 	25.4
scalar Network.dyn_peer[898] 	lookupTimeSig:mean 	1.575
scalar Network.dyn_peer[898] 	lookupStabilitySig:mean 	0.74689734680578
scalar Network.dyn_peer[898] 	lookupHopsSig:mean 	15
scalar Network.dyn_peer[899] 	lookupTimeSig:mean 	1.9166666666667
scalar Network.dyn_peer[899] 	lookupStabilitySig:mean 	0.94532733938346
scalar Network.dyn_peer[899] 	lookupHopsSig:mean 	18.25
scalar Network.dyn_peer[900] 	lookupTimeSig:mean 	2.82
scalar Network.dyn_peer[900] 	lookupStabilitySig:mean 	0.91367684490979
scalar Network.dyn_peer[900] 	lookupHopsSig:mean 	27.4
scalar Network.dyn_peer[901] 	lookupTimeSig:mean 	1.3666666666667
scalar Network.dyn_peer[901] 	lookupStabilitySig:mean 	0.94695429035669
scalar Network.dyn_peer[901] 	lookupHopsSig:mean 	12.777777777778
scalar Network.dyn_peer[902] 	lookupTimeSig:mean 	0.96
scalar Network.dyn_peer[902] 	lookupStabilitySig:mean 	0.5277019828558
scalar Network.dyn_peer[902] 	lookupHopsSig:mean 	8.8
scalar Network.dyn_peer[903] 	lookupTimeSig:mean 	2.0307692307692
scalar Network.dyn_peer[903] 	lookupStabilitySig:mean 	0.95409476171391
scalar Network.dyn_peer[903] 	lookupHopsSig:mean 	19.384615384615
scalar Network.dyn_peer[904] 	lookupTimeSig:mean 	2.0571428571429
scalar Network.dyn_peer[904] 	lookupStabilitySig:mean 	0.8942642249167
scalar Network.dyn_peer[904] 	lookupHopsSig:mean 	19.714285714286
scalar Network.dyn_peer[905] 	lookupTimeSig:mean 	2.1666666666667
scalar Network.dyn_peer[905] 	lookupStabilitySig:mean 	0.76890396202604
scalar Network.dyn_peer[905] 	lookupHopsSig:mean 	21
scalar Network.dyn_peer[906] 	lookupTimeSig:mean 	1.7125
scalar Network.dyn_peer[906] 	lookupStabilitySig:mean 	0.95171701989602
scalar Network.dyn_peer[906] 	lookupHopsSig:mean 	16.25
scalar Network.dyn_peer[907] 	lookupTimeSig:mean 	1.8
scalar Network.dyn_peer[907] 	lookupStabilitySig:mean 	0.9656324799095
scalar Network.dyn_peer[907] 	lookupHopsSig:mean 	17.083333333333
scalar Network.dyn_peer[908] 	lookupTimeSig:mean 	3.1666666666667
scalar Network.dyn_peer[908] 	lookupStabilitySig:mean 	0.86178365101417
scalar Network.dyn_peer[908] 	lookupHopsSig:mean 	31
scalar Network.dyn_peer[909] 	lookupTimeSig:mean 	1.6888888888889
scalar Network.dyn_peer[909] 	lookupStabilitySig:mean 	0.9054495719158
scalar Network.dyn_peer[909] 	lookupHopsSig:mean 	16
scalar Network.dyn_peer[910] 	lookupTimeSig:mean 	1.75
scalar Network.dyn_peer[910] 	lookupStabilitySig:mean 	0.95738831632771
scalar Network.dyn_peer[910] 	lookupHopsSig:mean 	16.6
scalar Network.dyn_peer[911] 	lookupTimeSig:mean 	2.1857142857143
scalar Network.dyn_peer[911] 	lookupStabilitySig:mean 	0.88727103799049
scalar Network.dyn_peer[911] 	lookupHopsSig:mean 	21
scalar Network.dyn_peer[912] 	lookupTimeSig:mean 	1.2444444444444
scalar Network.dyn_peer[912] 	lookupStabilitySig:mean 	0.9652935245734
scalar Network.dyn_peer[912] 	lookupHopsSig:mean 	11.5
scalar Network.dyn_peer[913] 	lookupTimeSig:mean 	1.8
scalar Network.dyn_peer[913] 	lookupStabilitySig:mean 	0.88830984176861
scalar Network.dyn_peer[913] 	lookupHopsSig:mean 	17.111111111111
scalar Network.dyn_peer[914] 	lookupTimeSig:mean 	1.3
scalar Network.dyn_peer[914] 	lookupStabilitySig:mean 	0.72516166170438
scalar Network.dyn_peer[914] 	lookupHopsSig:mean 	12.333333333333
scalar Network.dyn_peer[915] 	lookupTimeSig:mean 	2.4571428571429
scalar Network.dyn_peer[915] 	lookupStabilitySig:mean 	0.94874124295477
scalar Network.dyn_peer[915] 	lookupHopsSig:mean 	23.714285714286
scalar Network.dyn_peer[916] 	lookupTimeSig:mean 	2.3083333333333
scalar Network.dyn_peer[916] 	lookupStabilitySig:mean 	0.95871921564685
scalar Network.dyn_peer[916] 	lookupHopsSig:mean 	22.166666666667
scalar Network.dyn_peer[917] 	lookupTimeSig:mean 	3.65
scalar Network.dyn_peer[917] 	lookupStabilitySig:mean 	0.93216669210233
scalar Network.dyn_peer[917] 	lookupHopsSig:mean 	35.75
scalar Network.dyn_peer[918] 	lookupTimeSig:mean 	1.6625
scalar Network.dyn_peer[918] 	lookupStabilitySig:mean 	0.92801929754205
scalar Network.dyn_peer[918] 	lookupHopsSig:mean 	15.75
scalar Network.dyn_peer[919] 	lookupTimeSig:mean 	2.3285714285714
scalar Network.dyn_peer[919] 	lookupStabilitySig:mean 	0.93077977161322
scalar Network.dyn_peer[919] 	lookupHopsSig:mean 	22.428571428571
scalar Network.dyn_peer[920] 	lookupTimeSig:mean 	2.0285714285714
scalar Network.dyn_peer[920] 	lookupStabilitySig:mean 	0.74675820555006
scalar Network.dyn_peer[920] 	lookupHopsSig:mean 	19.428571428571
scalar Network.dyn_peer[921] 	lookupTimeSig:mean 	2.6333333333333
scalar Network.dyn_peer[921] 	lookupStabilitySig:mean 	0.7432790932556
scalar Network.dyn_peer[921] 	lookupHopsSig:mean 	25.666666666667
scalar Network.dyn_peer[922] 	lookupTimeSig:mean 	1.5333333333333
scalar Network.dyn_peer[922] 	lookupStabilitySig:mean 	0.64148352046808
scalar Network.dyn_peer[922] 	lookupHopsSig:mean 	14.666666666667
scalar Network.dyn_peer[923] 	lookupTimeSig:mean 	1.6875
scalar Network.dyn_peer[923] 	lookupStabilitySig:mean 	0.85123141319491
scalar Network.dyn_peer[923] 	lookupHopsSig:mean 	16
scalar Network.dyn_peer[924] 	lookupTimeSig:mean 	2.1571428571429
scalar Network.dyn_peer[924] 	lookupStabilitySig:mean 	0.94036055466027
scalar Network.dyn_peer[924] 	lookupHopsSig:mean 	20.642857142857
scalar Network.dyn_peer[925] 	lookupTimeSig:mean 	2.3
scalar Network.dyn_peer[925] 	lookupStabilitySig:mean 	0.90497545073075
scalar Network.dyn_peer[925] 	lookupHopsSig:mean 	22.142857142857
scalar Network.dyn_peer[926] 	lookupTimeSig:mean 	2.3857142857143
scalar Network.dyn_peer[926] 	lookupStabilitySig:mean 	0.88540256249585
scalar Network.dyn_peer[926] 	lookupHopsSig:mean 	23
scalar Network.dyn_peer[927] 	lookupTimeSig:mean 	1.7333333333333
scalar Network.dyn_peer[927] 	lookupStabilitySig:mean 	0.85569457585613
scalar Network.dyn_peer[927] 	lookupHopsSig:mean 	16.5
scalar Network.dyn_peer[928] 	lookupTimeSig:mean 	1.925
scalar Network.dyn_peer[928] 	lookupStabilitySig:mean 	0.93497779266909
scalar Network.dyn_peer[928] 	lookupHopsSig:mean 	18.375
scalar Network.dyn_peer[929] 	lookupTimeSig:mean 	1.6666666666667
scalar Network.dyn_peer[929] 	lookupStabilitySig:mean 	0.62503953526417
scalar Network.dyn_peer[929] 	lookupHopsSig:mean 	15.833333333333
scalar Network.dyn_peer[930] 	lookupTimeSig:mean 	1.975
scalar Network.dyn_peer[930] 	lookupStabilitySig:mean 	0.77048931596801
scalar Network.dyn_peer[930] 	lookupHopsSig:mean 	19
scalar Network.dyn_peer[931] 	lookupTimeSig:mean 	1.3333333333333
scalar Network.dyn_peer[931] 	lookupStabilitySig:mean 	0.77595799726744
scalar Network.dyn_peer[931] 	lookupHopsSig:mean 	12.5
scalar Network.dyn_peer[932] 	lookupTimeSig:mean 	3.3666666666667
scalar Network.dyn_peer[932] 	lookupStabilitySig:mean 	0.74653041362762
scalar Network.dyn_peer[932] 	lookupHopsSig:mean 	33
scalar Network.dyn_peer[933] 	lookupTimeSig:mean 	1.9
scalar Network.dyn_peer[933] 	lookupStabilitySig:mean 	0.91444225542779
scalar Network.dyn_peer[933] 	lookupHopsSig:mean 	18.142857142857
scalar Network.dyn_peer[934] 	lookupTimeSig:mean 	4.8
scalar Network.dyn_peer[934] 	lookupStabilitySig:mean 	0.80607454106212
scalar Network.dyn_peer[934] 	lookupHopsSig:mean 	47.5
scalar Network.dyn_peer[935] 	lookupTimeSig:mean 	2.6166666666667
scalar Network.dyn_peer[935] 	lookupStabilitySig:mean 	0.93314076595319
scalar Network.dyn_peer[935] 	lookupHopsSig:mean 	25.333333333333
scalar Network.dyn_peer[936] 	lookupTimeSig:mean 	2.475
scalar Network.dyn_peer[936] 	lookupStabilitySig:mean 	0.80807275976986
scalar Network.dyn_peer[936] 	lookupHopsSig:mean 	24
scalar Network.dyn_peer[937] 	lookupTimeSig:mean 	4.85
scalar Network.dyn_peer[937] 	lookupStabilitySig:mean 	0.86475519835949
scalar Network.dyn_peer[937] 	lookupHopsSig:mean 	48
scalar Network.dyn_peer[938] 	lookupTimeSig:mean 	2.44
scalar Network.dyn_peer[938] 	lookupStabilitySig:mean 	0.90862059891224
scalar Network.dyn_peer[938] 	lookupHopsSig:mean 	23.6
scalar Network.dyn_peer[939] 	lookupTimeSig:mean 	4.65
scalar Network.dyn_peer[939] 	lookupStabilitySig:mean 	0.71698492765427
scalar Network.dyn_peer[939] 	lookupHopsSig:mean 	46
scalar Network.dyn_peer[940] 	lookupTimeSig:mean 	1.67
scalar Network.dyn_peer[940] 	lookupStabilitySig:mean 	0.91792043335736
scalar Network.dyn_peer[940] 	lookupHopsSig:mean 	15.8
scalar Network.dyn_peer[941] 	lookupTimeSig:mean 	1.2888888888889
scalar Network.dyn_peer[941] 	lookupStabilitySig:mean 	0.88532505598333
scalar Network.dyn_peer[941] 	lookupHopsSig:mean 	12
scalar Network.dyn_peer[942] 	lookupTimeSig:mean 	1.8
scalar Network.dyn_peer[942] 	lookupStabilitySig:mean 	0.59785877168179
scalar Network.dyn_peer[942] 	lookupHopsSig:mean 	17.333333333333
scalar Network.dyn_peer[943] 	lookupTimeSig:mean 	1.9777777777778
scalar Network.dyn_peer[943] 	lookupStabilitySig:mean 	0.95636537453781
scalar Network.dyn_peer[943] 	lookupHopsSig:mean 	18.888888888889
scalar Network.dyn_peer[944] 	lookupTimeSig:mean 	1.5333333333333
scalar Network.dyn_peer[944] 	lookupStabilitySig:mean 	0.85612010428061
scalar Network.dyn_peer[944] 	lookupHopsSig:mean 	14.5
scalar Network.dyn_peer[945] 	lookupTimeSig:mean 	1.5666666666667
scalar Network.dyn_peer[945] 	lookupStabilitySig:mean 	0.90478122482697
scalar Network.dyn_peer[945] 	lookupHopsSig:mean 	14.777777777778
scalar Network.dyn_peer[946] 	lookupTimeSig:mean 	1.6666666666667
scalar Network.dyn_peer[946] 	lookupStabilitySig:mean 	0.65690973866731
scalar Network.dyn_peer[946] 	lookupHopsSig:mean 	15.833333333333
scalar Network.dyn_peer[947] 	lookupTimeSig:mean 	1.05
scalar Network.dyn_peer[947] 	lookupStabilitySig:mean 	0.51203390909359
scalar Network.dyn_peer[947] 	lookupHopsSig:mean 	9.75
scalar Network.dyn_peer[948] 	lookupTimeSig:mean 	1.675
scalar Network.dyn_peer[948] 	lookupStabilitySig:mean 	0.87601060396992
scalar Network.dyn_peer[948] 	lookupHopsSig:mean 	16
scalar Network.dyn_peer[949] 	lookupTimeSig:mean 	2.65
scalar Network.dyn_peer[949] 	lookupStabilitySig:mean 	0.81136030307971
scalar Network.dyn_peer[949] 	lookupHopsSig:mean 	25.75
scalar Network.dyn_peer[950] 	lookupTimeSig:mean 	1.8571428571429
scalar Network.dyn_peer[950] 	lookupStabilitySig:mean 	0.93891621001863
scalar Network.dyn_peer[950] 	lookupHopsSig:mean 	17.714285714286
scalar Network.dyn_peer[951] 	lookupTimeSig:mean 	1
scalar Network.dyn_peer[951] 	lookupStabilitySig:mean 	0.44645228143781
scalar Network.dyn_peer[951] 	lookupHopsSig:mean 	9.25
scalar Network.dyn_peer[952] 	lookupTimeSig:mean 	1.875
scalar Network.dyn_peer[952] 	lookupStabilitySig:mean 	0.78146598068997
scalar Network.dyn_peer[952] 	lookupHopsSig:mean 	18
scalar Network.dyn_peer[953] 	lookupTimeSig:mean 	2.1
scalar Network.dyn_peer[953] 	lookupStabilitySig:mean 	0.96772881284017
scalar Network.dyn_peer[953] 	lookupHopsSig:mean 	20.090909090909
scalar Network.dyn_peer[954] 	lookupTimeSig:mean 	1.6571428571429
scalar Network.dyn_peer[954] 	lookupStabilitySig:mean 	0.69070549495518
scalar Network.dyn_peer[954] 	lookupHopsSig:mean 	15.714285714286
scalar Network.dyn_peer[955] 	lookupTimeSig:mean 	3.75
scalar Network.dyn_peer[955] 	lookupStabilitySig:mean 	0.65595714747906
scalar Network.dyn_peer[955] 	lookupHopsSig:mean 	37
scalar Network.dyn_peer[956] 	lookupTimeSig:mean 	1.575
scalar Network.dyn_peer[956] 	lookupStabilitySig:mean 	0.91978301965476
scalar Network.dyn_peer[956] 	lookupHopsSig:mean 	14.833333333333
scalar Network.dyn_peer[957] 	lookupTimeSig:mean 	1.825
scalar Network.dyn_peer[957] 	lookupStabilitySig:mean 	0.72329115495086
scalar Network.dyn_peer[957] 	lookupHopsSig:mean 	17.5
scalar Network.dyn_peer[958] 	lookupTimeSig:mean 	2.7333333333333
scalar Network.dyn_peer[958] 	lookupStabilitySig:mean 	0.88682493877908
scalar Network.dyn_peer[958] 	lookupHopsSig:mean 	26.5
scalar Network.dyn_peer[959] 	lookupTimeSig:mean 	2.6
scalar Network.dyn_peer[959] 	lookupStabilitySig:mean 	0.94006741854052
scalar Network.dyn_peer[959] 	lookupHopsSig:mean 	25.166666666667
scalar Network.dyn_peer[960] 	lookupTimeSig:mean 	2.2444444444444
scalar Network.dyn_peer[960] 	lookupStabilitySig:mean 	0.96029326671527
scalar Network.dyn_peer[960] 	lookupHopsSig:mean 	21.555555555556
scalar Network.dyn_peer[961] 	lookupTimeSig:mean 	1.3916666666667
scalar Network.dyn_peer[961] 	lookupStabilitySig:mean 	0.95678851388705
scalar Network.dyn_peer[961] 	lookupHopsSig:mean 	13
scalar Network.dyn_peer[962] 	lookupTimeSig:mean 	1.5111111111111
scalar Network.dyn_peer[962] 	lookupStabilitySig:mean 	0.92900635943645
scalar Network.dyn_peer[962] 	lookupHopsSig:mean 	14.222222222222
scalar Network.dyn_peer[963] 	lookupTimeSig:mean 	2.15
scalar Network.dyn_peer[963] 	lookupStabilitySig:mean 	0.90595441334881
scalar Network.dyn_peer[963] 	lookupHopsSig:mean 	20.625
scalar Network.dyn_peer[964] 	lookupTimeSig:mean 	2.6
scalar Network.dyn_peer[964] 	lookupStabilitySig:mean 	0.91823688754812
scalar Network.dyn_peer[964] 	lookupHopsSig:mean 	25.166666666667
scalar Network.dyn_peer[965] 	lookupTimeSig:mean 	1.4
scalar Network.dyn_peer[965] 	lookupStabilitySig:mean 	0.54591814540327
scalar Network.dyn_peer[965] 	lookupHopsSig:mean 	13.2
scalar Network.dyn_peer[966] 	lookupTimeSig:mean 	2.8666666666667
scalar Network.dyn_peer[966] 	lookupStabilitySig:mean 	0.7784861077865
scalar Network.dyn_peer[966] 	lookupHopsSig:mean 	28
scalar Network.dyn_peer[967] 	lookupTimeSig:mean 	1.8
scalar Network.dyn_peer[967] 	lookupStabilitySig:mean 	0.61692333718141
scalar Network.dyn_peer[967] 	lookupHopsSig:mean 	17.333333333333
scalar Network.dyn_peer[968] 	lookupTimeSig:mean 	1.8428571428571
scalar Network.dyn_peer[968] 	lookupStabilitySig:mean 	0.95538133522496
scalar Network.dyn_peer[968] 	lookupHopsSig:mean 	17.571428571429
scalar Network.dyn_peer[969] 	lookupTimeSig:mean 	1.2571428571429
scalar Network.dyn_peer[969] 	lookupStabilitySig:mean 	0.92083219166047
scalar Network.dyn_peer[969] 	lookupHopsSig:mean 	11.642857142857
scalar Network.dyn_peer[970] 	lookupTimeSig:mean 	3.2
scalar Network.dyn_peer[970] 	lookupStabilitySig:mean 	0.37162387619416
scalar Network.dyn_peer[970] 	lookupHopsSig:mean 	31.333333333333
scalar Network.dyn_peer[971] 	lookupTimeSig:mean 	1.64
scalar Network.dyn_peer[971] 	lookupStabilitySig:mean 	0.83862841501832
scalar Network.dyn_peer[971] 	lookupHopsSig:mean 	15.6
scalar Network.dyn_peer[972] 	lookupTimeSig:mean 	3.4
scalar Network.dyn_peer[972] 	lookupStabilitySig:mean 	0.7169502787292
scalar Network.dyn_peer[972] 	lookupHopsSig:mean 	33.5
scalar Network.dyn_peer[973] 	lookupTimeSig:mean 	2.4714285714286
scalar Network.dyn_peer[973] 	lookupStabilitySig:mean 	0.94905925788251
scalar Network.dyn_peer[973] 	lookupHopsSig:mean 	23.857142857143
scalar Network.dyn_peer[974] 	lookupTimeSig:mean 	2.225
scalar Network.dyn_peer[974] 	lookupStabilitySig:mean 	0.89504769172345
scalar Network.dyn_peer[974] 	lookupHopsSig:mean 	21.375
scalar Network.dyn_peer[975] 	lookupTimeSig:mean 	3.6
scalar Network.dyn_peer[975] 	lookupStabilitySig:mean 	0.91458969873687
scalar Network.dyn_peer[975] 	lookupHopsSig:mean 	35.333333333333
scalar Network.dyn_peer[976] 	lookupTimeSig:mean 	1.35
scalar Network.dyn_peer[976] 	lookupStabilitySig:mean 	0.91710638225777
scalar Network.dyn_peer[976] 	lookupHopsSig:mean 	12.583333333333
scalar Network.dyn_peer[977] 	lookupTimeSig:mean 	2.04
scalar Network.dyn_peer[977] 	lookupStabilitySig:mean 	0.84319962747395
scalar Network.dyn_peer[977] 	lookupHopsSig:mean 	19.6
scalar Network.dyn_peer[978] 	lookupTimeSig:mean 	3.5333333333333
scalar Network.dyn_peer[978] 	lookupStabilitySig:mean 	0.70279636234045
scalar Network.dyn_peer[978] 	lookupHopsSig:mean 	34.666666666667
scalar Network.dyn_peer[979] 	lookupTimeSig:mean 	1.925
scalar Network.dyn_peer[979] 	lookupStabilitySig:mean 	0.42698660679162
scalar Network.dyn_peer[979] 	lookupHopsSig:mean 	18.5
scalar Network.dyn_peer[980] 	lookupTimeSig:mean 	1.4888888888889
scalar Network.dyn_peer[980] 	lookupStabilitySig:mean 	0.91696691078444
scalar Network.dyn_peer[980] 	lookupHopsSig:mean 	14
scalar Network.dyn_peer[981] 	lookupTimeSig:mean 	2.04
scalar Network.dyn_peer[981] 	lookupStabilitySig:mean 	0.81872578859329
scalar Network.dyn_peer[981] 	lookupHopsSig:mean 	19.6
scalar Network.dyn_peer[982] 	lookupTimeSig:mean 	1.45
scalar Network.dyn_peer[982] 	lookupStabilitySig:mean 	0.93037741794251
scalar Network.dyn_peer[982] 	lookupHopsSig:mean 	13.625
scalar Network.dyn_peer[983] 	lookupTimeSig:mean 	1.7866666666667
scalar Network.dyn_peer[983] 	lookupStabilitySig:mean 	0.93205558843911
scalar Network.dyn_peer[983] 	lookupHopsSig:mean 	16.933333333333
scalar Network.dyn_peer[984] 	lookupTimeSig:mean 	1.625
scalar Network.dyn_peer[984] 	lookupStabilitySig:mean 	0.7421696879901
scalar Network.dyn_peer[984] 	lookupHopsSig:mean 	15.5
scalar Network.dyn_peer[985] 	lookupTimeSig:mean 	1.9666666666667
scalar Network.dyn_peer[985] 	lookupStabilitySig:mean 	0.28332254787286
scalar Network.dyn_peer[985] 	lookupHopsSig:mean 	19
scalar Network.dyn_peer[986] 	lookupTimeSig:mean 	2.45
scalar Network.dyn_peer[986] 	lookupStabilitySig:mean 	0.91892860271037
scalar Network.dyn_peer[986] 	lookupHopsSig:mean 	23.75
scalar Network.dyn_peer[987] 	lookupTimeSig:mean 	2.125
scalar Network.dyn_peer[987] 	lookupStabilitySig:mean 	0.47897555679083
scalar Network.dyn_peer[987] 	lookupHopsSig:mean 	20.5
scalar Network.dyn_peer[988] 	lookupTimeSig:mean 	1.7333333333333
scalar Network.dyn_peer[988] 	lookupStabilitySig:mean 	0.74565765178866
scalar Network.dyn_peer[988] 	lookupHopsSig:mean 	16.444444444444
scalar Network.dyn_peer[989] 	lookupTimeSig:mean 	2.34
scalar Network.dyn_peer[989] 	lookupStabilitySig:mean 	0.8572186820209
scalar Network.dyn_peer[989] 	lookupHopsSig:mean 	22.6
scalar Network.dyn_peer[990] 	lookupTimeSig:mean 	1.94
scalar Network.dyn_peer[990] 	lookupStabilitySig:mean 	0.75903203785419
scalar Network.dyn_peer[990] 	lookupHopsSig:mean 	18.6
scalar Network.dyn_peer[991] 	lookupTimeSig:mean 	1.1333333333333
scalar Network.dyn_peer[991] 	lookupStabilitySig:mean 	0.4470379302899
scalar Network.dyn_peer[991] 	lookupHopsSig:mean 	10.666666666667
scalar Network.dyn_peer[992] 	lookupTimeSig:mean 	1.3666666666667
scalar Network.dyn_peer[992] 	lookupStabilitySig:mean 	0.22863688568274
scalar Network.dyn_peer[992] 	lookupHopsSig:mean 	13
scalar Network.dyn_peer[993] 	lookupTimeSig:mean 	0.8
scalar Network.dyn_peer[993] 	lookupStabilitySig:mean 	0.30038609107335
scalar Network.dyn_peer[993] 	lookupHopsSig:mean 	7.3333333333333
scalar Network.dyn_peer[994] 	lookupTimeSig:mean 	2.15
scalar Network.dyn_peer[994] 	lookupStabilitySig:mean 	0.87341930775438
scalar Network.dyn_peer[994] 	lookupHopsSig:mean 	20.75
scalar Network.dyn_peer[995] 	lookupTimeSig:mean 	1.5875
scalar Network.dyn_peer[995] 	lookupStabilitySig:mean 	0.77137559116818
scalar Network.dyn_peer[995] 	lookupHopsSig:mean 	15
scalar Network.dyn_peer[996] 	lookupTimeSig:mean 	1.7666666666667
scalar Network.dyn_peer[996] 	lookupStabilitySig:mean 	0.92031846086805
scalar Network.dyn_peer[996] 	lookupHopsSig:mean 	16.833333333333
scalar Network.dyn_peer[997] 	lookupTimeSig:mean 	2.0142857142857
scalar Network.dyn_peer[997] 	lookupStabilitySig:mean 	0.89443709594863
scalar Network.dyn_peer[997] 	lookupHopsSig:mean 	19.285714285714
scalar Network.dyn_peer[998] 	lookupTimeSig:mean 	1.15
scalar Network.dyn_peer[998] 	lookupStabilitySig:mean 	0.52099360711873
scalar Network.dyn_peer[998] 	lookupHopsSig:mean 	10.75
scalar Network.dyn_peer[999] 	lookupTimeSig:mean 	2.0333333333333
scalar Network.dyn_peer[999] 	lookupStabilitySig:mean 	0.92485611482213
scalar Network.dyn_peer[999] 	lookupHopsSig:mean 	19.5
scalar Network.churner 	inGoingSizeSig:mean 	499.000999001
