version 2
run Stability2-301-20130526-00:54:20-26640
attr configname Stability2
attr datetime 20130526-00:54:20
attr experiment Stability2
attr inifile omnetpp.ini
attr iterationvars $0=1000
attr iterationvars2 "$0=1000, $repetition=1"
attr measurement $0=1000
attr network Network
attr processid 26640
attr repetition 1
attr replication #1
attr resultdir results
attr runnumber 301
attr seedset 301

scalar Network.dyn_peer[0] 	lookupTimeSig:mean 	0.825
scalar Network.dyn_peer[0] 	lookupStabilitySig:mean 	0.35119047388434
scalar Network.dyn_peer[0] 	lookupHopsSig:mean 	7.5
scalar Network.dyn_peer[1] 	lookupTimeSig:mean 	2.22
scalar Network.dyn_peer[1] 	lookupStabilitySig:mean 	0.47054348401725
scalar Network.dyn_peer[1] 	lookupHopsSig:mean 	21.4
scalar Network.dyn_peer[2] 	lookupTimeSig:mean 	2.3333333333333
scalar Network.dyn_peer[2] 	lookupStabilitySig:mean 	0.18972909450531
scalar Network.dyn_peer[2] 	lookupHopsSig:mean 	22.666666666667
scalar Network.dyn_peer[3] 	lookupTimeSig:mean 	2.25
scalar Network.dyn_peer[3] 	lookupStabilitySig:mean 	0.78181263525039
scalar Network.dyn_peer[3] 	lookupHopsSig:mean 	21.666666666667
scalar Network.dyn_peer[4] 	lookupTimeSig:mean 	1.4666666666667
scalar Network.dyn_peer[4] 	lookupStabilitySig:mean 	0.62769283168018
scalar Network.dyn_peer[4] 	lookupHopsSig:mean 	13.833333333333
scalar Network.dyn_peer[5] 	lookupTimeSig:mean 	1.975
scalar Network.dyn_peer[5] 	lookupStabilitySig:mean 	0.75704175163992
scalar Network.dyn_peer[5] 	lookupHopsSig:mean 	18.875
scalar Network.dyn_peer[6] 	lookupTimeSig:mean 	2.125
scalar Network.dyn_peer[6] 	lookupStabilitySig:mean 	0.62301567383111
scalar Network.dyn_peer[6] 	lookupHopsSig:mean 	20.5
scalar Network.dyn_peer[7] 	lookupTimeSig:mean 	1.2666666666667
scalar Network.dyn_peer[7] 	lookupStabilitySig:mean 	0.17037035524845
scalar Network.dyn_peer[7] 	lookupHopsSig:mean 	12
scalar Network.dyn_peer[8] 	lookupTimeSig:mean 	2.72
scalar Network.dyn_peer[8] 	lookupStabilitySig:mean 	0.622628826648
scalar Network.dyn_peer[8] 	lookupHopsSig:mean 	26.4
scalar Network.dyn_peer[9] 	lookupTimeSig:mean 	1.7444444444444
scalar Network.dyn_peer[9] 	lookupStabilitySig:mean 	0.78376974510805
scalar Network.dyn_peer[9] 	lookupHopsSig:mean 	16.555555555556
scalar Network.dyn_peer[10] 	lookupTimeSig:mean 	1.34
scalar Network.dyn_peer[10] 	lookupStabilitySig:mean 	0.47033342123032
scalar Network.dyn_peer[10] 	lookupHopsSig:mean 	12.6
scalar Network.dyn_peer[11] 	lookupTimeSig:mean 	2.1666666666667
scalar Network.dyn_peer[11] 	lookupStabilitySig:mean 	0.8226827668647
scalar Network.dyn_peer[11] 	lookupHopsSig:mean 	21
scalar Network.dyn_peer[12] 	lookupTimeSig:mean 	1.4111111111111
scalar Network.dyn_peer[12] 	lookupStabilitySig:mean 	0.7252366186844
scalar Network.dyn_peer[12] 	lookupHopsSig:mean 	13.222222222222
scalar Network.dyn_peer[13] 	lookupTimeSig:mean 	1.7375
scalar Network.dyn_peer[13] 	lookupStabilitySig:mean 	0.78887952945661
scalar Network.dyn_peer[13] 	lookupHopsSig:mean 	16.5
scalar Network.dyn_peer[14] 	lookupTimeSig:mean 	3.425
scalar Network.dyn_peer[14] 	lookupStabilitySig:mean 	0.8335708072409
scalar Network.dyn_peer[14] 	lookupHopsSig:mean 	33.5
scalar Network.dyn_peer[15] 	lookupTimeSig:mean 	1.68
scalar Network.dyn_peer[15] 	lookupStabilitySig:mean 	0.49350957497954
scalar Network.dyn_peer[15] 	lookupHopsSig:mean 	16
scalar Network.dyn_peer[16] 	lookupTimeSig:mean 	1.6428571428571
scalar Network.dyn_peer[16] 	lookupStabilitySig:mean 	0.79650519761656
scalar Network.dyn_peer[16] 	lookupHopsSig:mean 	15.571428571429
scalar Network.dyn_peer[17] 	lookupTimeSig:mean 	1.15
scalar Network.dyn_peer[17] 	lookupStabilitySig:mean 	0.63597128136704
scalar Network.dyn_peer[17] 	lookupHopsSig:mean 	10.666666666667
scalar Network.dyn_peer[18] 	lookupTimeSig:mean 	1.34
scalar Network.dyn_peer[18] 	lookupStabilitySig:mean 	0.8224941149354
scalar Network.dyn_peer[18] 	lookupHopsSig:mean 	12.6
scalar Network.dyn_peer[19] 	lookupTimeSig:mean 	1
scalar Network.dyn_peer[19] 	lookupStabilitySig:mean 	0.48359239250422
scalar Network.dyn_peer[19] 	lookupHopsSig:mean 	9.2
scalar Network.dyn_peer[20] 	lookupTimeSig:mean 	1.85
scalar Network.dyn_peer[20] 	lookupStabilitySig:mean 	0.42804910056293
scalar Network.dyn_peer[20] 	lookupHopsSig:mean 	17.75
scalar Network.dyn_peer[21] 	lookupTimeSig:mean 	1.75
scalar Network.dyn_peer[21] 	lookupStabilitySig:mean 	0.90466072247364
scalar Network.dyn_peer[21] 	lookupHopsSig:mean 	16.625
scalar Network.dyn_peer[22] 	lookupTimeSig:mean 	1.0142857142857
scalar Network.dyn_peer[22] 	lookupStabilitySig:mean 	0.69929596156414
scalar Network.dyn_peer[22] 	lookupHopsSig:mean 	9.2857142857143
scalar Network.dyn_peer[23] 	lookupTimeSig:mean 	3.45
scalar Network.dyn_peer[23] 	lookupStabilitySig:mean 	0.35358547698706
scalar Network.dyn_peer[23] 	lookupHopsSig:mean 	33.75
scalar Network.dyn_peer[24] 	lookupTimeSig:mean 	3.0333333333333
scalar Network.dyn_peer[24] 	lookupStabilitySig:mean 	0.50842844943206
scalar Network.dyn_peer[24] 	lookupHopsSig:mean 	29.666666666667
scalar Network.dyn_peer[25] 	lookupTimeSig:mean 	3.425
scalar Network.dyn_peer[25] 	lookupStabilitySig:mean 	0.78731899708509
scalar Network.dyn_peer[25] 	lookupHopsSig:mean 	33.5
scalar Network.dyn_peer[26] 	lookupTimeSig:mean 	2.9
scalar Network.dyn_peer[26] 	lookupStabilitySig:mean 	0.41562499850988
scalar Network.dyn_peer[26] 	lookupHopsSig:mean 	28.5
scalar Network.dyn_peer[27] 	lookupTimeSig:mean 	2
scalar Network.dyn_peer[27] 	lookupStabilitySig:mean 	-0.04047617316246
scalar Network.dyn_peer[27] 	lookupHopsSig:mean 	19.5
scalar Network.dyn_peer[28] 	lookupTimeSig:mean 	2.75
scalar Network.dyn_peer[28] 	lookupStabilitySig:mean 	0.71469024382532
scalar Network.dyn_peer[28] 	lookupHopsSig:mean 	26.75
scalar Network.dyn_peer[29] 	lookupTimeSig:mean 	2.6666666666667
scalar Network.dyn_peer[29] 	lookupStabilitySig:mean 	0.81228011846542
scalar Network.dyn_peer[29] 	lookupHopsSig:mean 	26
scalar Network.dyn_peer[30] 	lookupTimeSig:mean 	1.3333333333333
scalar Network.dyn_peer[30] 	lookupStabilitySig:mean 	0.31599055230618
scalar Network.dyn_peer[30] 	lookupHopsSig:mean 	12.666666666667
scalar Network.dyn_peer[31] 	lookupTimeSig:mean 	2.5333333333333
scalar Network.dyn_peer[31] 	lookupStabilitySig:mean 	0.79121690077914
scalar Network.dyn_peer[31] 	lookupHopsSig:mean 	24.444444444444
scalar Network.dyn_peer[32] 	lookupTimeSig:mean 	1.74
scalar Network.dyn_peer[32] 	lookupStabilitySig:mean 	0.49459101483226
scalar Network.dyn_peer[32] 	lookupHopsSig:mean 	16.6
scalar Network.dyn_peer[33] 	lookupTimeSig:mean 	1.6090909090909
scalar Network.dyn_peer[33] 	lookupStabilitySig:mean 	0.71441225097938
scalar Network.dyn_peer[33] 	lookupHopsSig:mean 	15.181818181818
scalar Network.dyn_peer[34] 	lookupTimeSig:mean 	1.625
scalar Network.dyn_peer[34] 	lookupStabilitySig:mean 	0.45796146802604
scalar Network.dyn_peer[34] 	lookupHopsSig:mean 	15.5
scalar Network.dyn_peer[35] 	lookupTimeSig:mean 	1.78
scalar Network.dyn_peer[35] 	lookupStabilitySig:mean 	0.46800113618374
scalar Network.dyn_peer[35] 	lookupHopsSig:mean 	17
scalar Network.dyn_peer[36] 	lookupTimeSig:mean 	3.3666666666667
scalar Network.dyn_peer[36] 	lookupStabilitySig:mean 	0.69454436625044
scalar Network.dyn_peer[36] 	lookupHopsSig:mean 	33
scalar Network.dyn_peer[37] 	lookupTimeSig:mean 	1.5
scalar Network.dyn_peer[37] 	lookupStabilitySig:mean 	0.7147886974737
scalar Network.dyn_peer[37] 	lookupHopsSig:mean 	14.1
scalar Network.dyn_peer[38] 	lookupTimeSig:mean 	2.7666666666667
scalar Network.dyn_peer[38] 	lookupStabilitySig:mean 	0.88867448021968
scalar Network.dyn_peer[38] 	lookupHopsSig:mean 	27
scalar Network.dyn_peer[39] 	lookupTimeSig:mean 	2.05
scalar Network.dyn_peer[39] 	lookupStabilitySig:mean 	0.91129300789908
scalar Network.dyn_peer[39] 	lookupHopsSig:mean 	19.625
scalar Network.dyn_peer[40] 	lookupTimeSig:mean 	2.56
scalar Network.dyn_peer[40] 	lookupStabilitySig:mean 	0.86380948126316
scalar Network.dyn_peer[40] 	lookupHopsSig:mean 	24.8
scalar Network.dyn_peer[41] 	lookupTimeSig:mean 	3.375
scalar Network.dyn_peer[41] 	lookupStabilitySig:mean 	0.93891904177144
scalar Network.dyn_peer[41] 	lookupHopsSig:mean 	33
scalar Network.dyn_peer[42] 	lookupTimeSig:mean 	2.225
scalar Network.dyn_peer[42] 	lookupStabilitySig:mean 	0.39337357413024
scalar Network.dyn_peer[42] 	lookupHopsSig:mean 	21.5
scalar Network.dyn_peer[43] 	lookupTimeSig:mean 	5.65
scalar Network.dyn_peer[43] 	lookupStabilitySig:mean 	0.80017985403538
scalar Network.dyn_peer[43] 	lookupHopsSig:mean 	56
scalar Network.dyn_peer[44] 	lookupTimeSig:mean 	3.08
scalar Network.dyn_peer[44] 	lookupStabilitySig:mean 	0.73514857180417
scalar Network.dyn_peer[44] 	lookupHopsSig:mean 	30
scalar Network.dyn_peer[45] 	lookupTimeSig:mean 	1.5
scalar Network.dyn_peer[45] 	lookupStabilitySig:mean 	0.71618378162384
scalar Network.dyn_peer[45] 	lookupHopsSig:mean 	14.111111111111
scalar Network.dyn_peer[46] 	lookupTimeSig:mean 	1.55
scalar Network.dyn_peer[46] 	lookupStabilitySig:mean 	0.74426708440296
scalar Network.dyn_peer[46] 	lookupHopsSig:mean 	14.625
scalar Network.dyn_peer[47] 	lookupTimeSig:mean 	2.4333333333333
scalar Network.dyn_peer[47] 	lookupStabilitySig:mean 	0.21763988335927
scalar Network.dyn_peer[47] 	lookupHopsSig:mean 	23.666666666667
scalar Network.dyn_peer[48] 	lookupTimeSig:mean 	1.68
scalar Network.dyn_peer[48] 	lookupStabilitySig:mean 	0.81338956132531
scalar Network.dyn_peer[48] 	lookupHopsSig:mean 	16
scalar Network.dyn_peer[49] 	lookupTimeSig:mean 	1.8333333333333
scalar Network.dyn_peer[49] 	lookupStabilitySig:mean 	0.68505746126175
scalar Network.dyn_peer[49] 	lookupHopsSig:mean 	17.666666666667
scalar Network.dyn_peer[50] 	lookupTimeSig:mean 	1.2142857142857
scalar Network.dyn_peer[50] 	lookupStabilitySig:mean 	0.60689677830253
scalar Network.dyn_peer[50] 	lookupHopsSig:mean 	11.285714285714
scalar Network.dyn_peer[51] 	lookupTimeSig:mean 	1.6
scalar Network.dyn_peer[51] 	lookupStabilitySig:mean 	0.68891749531031
scalar Network.dyn_peer[51] 	lookupHopsSig:mean 	15.333333333333
scalar Network.dyn_peer[52] 	lookupTimeSig:mean 	1.78
scalar Network.dyn_peer[52] 	lookupStabilitySig:mean 	0.73607471156865
scalar Network.dyn_peer[52] 	lookupHopsSig:mean 	17
scalar Network.dyn_peer[53] 	lookupTimeSig:mean 	3.5666666666667
scalar Network.dyn_peer[53] 	lookupStabilitySig:mean 	0.77705522874991
scalar Network.dyn_peer[53] 	lookupHopsSig:mean 	35
scalar Network.dyn_peer[54] 	lookupTimeSig:mean 	1.475
scalar Network.dyn_peer[54] 	lookupStabilitySig:mean 	0.64205725304782
scalar Network.dyn_peer[54] 	lookupHopsSig:mean 	14
scalar Network.dyn_peer[55] 	lookupTimeSig:mean 	1.62
scalar Network.dyn_peer[55] 	lookupStabilitySig:mean 	0.8606253654696
scalar Network.dyn_peer[55] 	lookupHopsSig:mean 	15.3
scalar Network.dyn_peer[56] 	lookupTimeSig:mean 	2.74
scalar Network.dyn_peer[56] 	lookupStabilitySig:mean 	0.81191456764936
scalar Network.dyn_peer[56] 	lookupHopsSig:mean 	26.6
scalar Network.dyn_peer[57] 	lookupTimeSig:mean 	2.38
scalar Network.dyn_peer[57] 	lookupStabilitySig:mean 	0.5368470415473
scalar Network.dyn_peer[57] 	lookupHopsSig:mean 	23
scalar Network.dyn_peer[58] 	lookupTimeSig:mean 	1.9444444444444
scalar Network.dyn_peer[58] 	lookupStabilitySig:mean 	0.85199336252279
scalar Network.dyn_peer[58] 	lookupHopsSig:mean 	18.555555555556
scalar Network.dyn_peer[59] 	lookupTimeSig:mean 	3
scalar Network.dyn_peer[59] 	lookupStabilitySig:mean 	0.3379028365016
scalar Network.dyn_peer[59] 	lookupHopsSig:mean 	29.333333333333
scalar Network.dyn_peer[60] 	lookupTimeSig:mean 	2.65
scalar Network.dyn_peer[60] 	lookupStabilitySig:mean 	0.49316253513098
scalar Network.dyn_peer[60] 	lookupHopsSig:mean 	25.75
scalar Network.dyn_peer[61] 	lookupTimeSig:mean 	1.1333333333333
scalar Network.dyn_peer[61] 	lookupStabilitySig:mean 	0.58985505998135
scalar Network.dyn_peer[61] 	lookupHopsSig:mean 	10.666666666667
scalar Network.dyn_peer[62] 	lookupTimeSig:mean 	1.4666666666667
scalar Network.dyn_peer[62] 	lookupStabilitySig:mean 	0.78765734874954
scalar Network.dyn_peer[62] 	lookupHopsSig:mean 	13.833333333333
scalar Network.dyn_peer[63] 	lookupTimeSig:mean 	1.0571428571429
scalar Network.dyn_peer[63] 	lookupStabilitySig:mean 	0.66517236459601
scalar Network.dyn_peer[63] 	lookupHopsSig:mean 	9.7142857142857
scalar Network.dyn_peer[64] 	lookupTimeSig:mean 	4.4666666666667
scalar Network.dyn_peer[64] 	lookupStabilitySig:mean 	0.52003988126914
scalar Network.dyn_peer[64] 	lookupHopsSig:mean 	44
scalar Network.dyn_peer[65] 	lookupTimeSig:mean 	1.57
scalar Network.dyn_peer[65] 	lookupStabilitySig:mean 	0.79072719463147
scalar Network.dyn_peer[65] 	lookupHopsSig:mean 	14.8
scalar Network.dyn_peer[66] 	lookupTimeSig:mean 	1.4571428571429
scalar Network.dyn_peer[66] 	lookupStabilitySig:mean 	0.64603691148971
scalar Network.dyn_peer[66] 	lookupHopsSig:mean 	13.714285714286
scalar Network.dyn_peer[67] 	lookupTimeSig:mean 	0.425
scalar Network.dyn_peer[67] 	lookupStabilitySig:mean 	0.4638888835907
scalar Network.dyn_peer[67] 	lookupHopsSig:mean 	3.5
scalar Network.dyn_peer[68] 	lookupTimeSig:mean 	1.625
scalar Network.dyn_peer[68] 	lookupStabilitySig:mean 	0.68571835290641
scalar Network.dyn_peer[68] 	lookupHopsSig:mean 	15.5
scalar Network.dyn_peer[69] 	lookupTimeSig:mean 	2.1142857142857
scalar Network.dyn_peer[69] 	lookupStabilitySig:mean 	0.64925591275096
scalar Network.dyn_peer[69] 	lookupHopsSig:mean 	20.285714285714
scalar Network.dyn_peer[70] 	lookupTimeSig:mean 	2.7
scalar Network.dyn_peer[70] 	lookupStabilitySig:mean 	0.63344253692776
scalar Network.dyn_peer[70] 	lookupHopsSig:mean 	26.25
scalar Network.dyn_peer[71] 	lookupTimeSig:mean 	1.5
scalar Network.dyn_peer[71] 	lookupStabilitySig:mean 	0.80778569326951
scalar Network.dyn_peer[71] 	lookupHopsSig:mean 	14.076923076923
scalar Network.dyn_peer[72] 	lookupTimeSig:mean 	1.9
scalar Network.dyn_peer[72] 	lookupStabilitySig:mean 	0.73453861661255
scalar Network.dyn_peer[72] 	lookupHopsSig:mean 	18.25
scalar Network.dyn_peer[73] 	lookupTimeSig:mean 	1.6666666666667
scalar Network.dyn_peer[73] 	lookupStabilitySig:mean 	0.74285573186353
scalar Network.dyn_peer[73] 	lookupHopsSig:mean 	15.833333333333
scalar Network.dyn_peer[74] 	lookupTimeSig:mean 	2.05
scalar Network.dyn_peer[74] 	lookupStabilitySig:mean 	0.53049762640148
scalar Network.dyn_peer[74] 	lookupHopsSig:mean 	19.75
scalar Network.dyn_peer[75] 	lookupTimeSig:mean 	2.1
scalar Network.dyn_peer[75] 	lookupStabilitySig:mean 	0.63575706258416
scalar Network.dyn_peer[75] 	lookupHopsSig:mean 	20.25
scalar Network.dyn_peer[76] 	lookupTimeSig:mean 	1.54
scalar Network.dyn_peer[76] 	lookupStabilitySig:mean 	0.56142388880253
scalar Network.dyn_peer[76] 	lookupHopsSig:mean 	14.6
scalar Network.dyn_peer[77] 	lookupTimeSig:mean 	3
scalar Network.dyn_peer[77] 	lookupStabilitySig:mean 	0.69647161414226
scalar Network.dyn_peer[77] 	lookupHopsSig:mean 	29.333333333333
scalar Network.dyn_peer[78] 	lookupTimeSig:mean 	0.575
scalar Network.dyn_peer[78] 	lookupStabilitySig:mean 	0.49999999254942
scalar Network.dyn_peer[78] 	lookupHopsSig:mean 	5
scalar Network.dyn_peer[79] 	lookupTimeSig:mean 	1.46
scalar Network.dyn_peer[79] 	lookupStabilitySig:mean 	0.4715932957828
scalar Network.dyn_peer[79] 	lookupHopsSig:mean 	13.8
scalar Network.dyn_peer[80] 	lookupTimeSig:mean 	1.4
scalar Network.dyn_peer[80] 	lookupStabilitySig:mean 	0.8834175671509
scalar Network.dyn_peer[80] 	lookupHopsSig:mean 	13.0625
scalar Network.dyn_peer[81] 	lookupTimeSig:mean 	2.2833333333333
scalar Network.dyn_peer[81] 	lookupStabilitySig:mean 	0.70275245700032
scalar Network.dyn_peer[81] 	lookupHopsSig:mean 	22
scalar Network.dyn_peer[82] 	lookupTimeSig:mean 	3.4
scalar Network.dyn_peer[82] 	lookupStabilitySig:mean 	0.74029555171728
scalar Network.dyn_peer[82] 	lookupHopsSig:mean 	33.333333333333
scalar Network.dyn_peer[83] 	lookupTimeSig:mean 	1.975
scalar Network.dyn_peer[83] 	lookupStabilitySig:mean 	0.41106509976089
scalar Network.dyn_peer[83] 	lookupHopsSig:mean 	19
scalar Network.dyn_peer[84] 	lookupTimeSig:mean 	2
scalar Network.dyn_peer[84] 	lookupStabilitySig:mean 	0.85224124155939
scalar Network.dyn_peer[84] 	lookupHopsSig:mean 	19.2
scalar Network.dyn_peer[85] 	lookupTimeSig:mean 	1.8
scalar Network.dyn_peer[85] 	lookupStabilitySig:mean 	0.72831077900316
scalar Network.dyn_peer[85] 	lookupHopsSig:mean 	17.142857142857
scalar Network.dyn_peer[86] 	lookupTimeSig:mean 	1.975
scalar Network.dyn_peer[86] 	lookupStabilitySig:mean 	0.56539781857282
scalar Network.dyn_peer[86] 	lookupHopsSig:mean 	19
scalar Network.dyn_peer[87] 	lookupTimeSig:mean 	1.5
scalar Network.dyn_peer[87] 	lookupStabilitySig:mean 	0.56813397817314
scalar Network.dyn_peer[87] 	lookupHopsSig:mean 	14.166666666667
scalar Network.dyn_peer[88] 	lookupTimeSig:mean 	2.1
scalar Network.dyn_peer[88] 	lookupStabilitySig:mean 	0.29791180292765
scalar Network.dyn_peer[88] 	lookupHopsSig:mean 	20.333333333333
scalar Network.dyn_peer[89] 	lookupTimeSig:mean 	1.6666666666667
scalar Network.dyn_peer[89] 	lookupStabilitySig:mean 	0.58505227292577
scalar Network.dyn_peer[89] 	lookupHopsSig:mean 	15.833333333333
scalar Network.dyn_peer[90] 	lookupTimeSig:mean 	1.4714285714286
scalar Network.dyn_peer[90] 	lookupStabilitySig:mean 	0.64031120123608
scalar Network.dyn_peer[90] 	lookupHopsSig:mean 	13.857142857143
scalar Network.dyn_peer[91] 	lookupTimeSig:mean 	2.3666666666667
scalar Network.dyn_peer[91] 	lookupStabilitySig:mean 	0.63131226350864
scalar Network.dyn_peer[91] 	lookupHopsSig:mean 	22.833333333333
scalar Network.dyn_peer[92] 	lookupTimeSig:mean 	2.5
scalar Network.dyn_peer[92] 	lookupStabilitySig:mean 	0.3916185637936
scalar Network.dyn_peer[92] 	lookupHopsSig:mean 	24.25
scalar Network.dyn_peer[93] 	lookupTimeSig:mean 	0.85
scalar Network.dyn_peer[93] 	lookupStabilitySig:mean 	0.32916666939855
scalar Network.dyn_peer[93] 	lookupHopsSig:mean 	7.75
scalar Network.dyn_peer[94] 	lookupTimeSig:mean 	2.95
scalar Network.dyn_peer[94] 	lookupStabilitySig:mean 	0.69856472243555
scalar Network.dyn_peer[94] 	lookupHopsSig:mean 	28.75
scalar Network.dyn_peer[95] 	lookupTimeSig:mean 	2.5875
scalar Network.dyn_peer[95] 	lookupStabilitySig:mean 	0.73840829799883
scalar Network.dyn_peer[95] 	lookupHopsSig:mean 	25
scalar Network.dyn_peer[96] 	lookupTimeSig:mean 	2.95
scalar Network.dyn_peer[96] 	lookupStabilitySig:mean 	0.93158536528548
scalar Network.dyn_peer[96] 	lookupHopsSig:mean 	28.666666666667
scalar Network.dyn_peer[97] 	lookupTimeSig:mean 	1.66
scalar Network.dyn_peer[97] 	lookupStabilitySig:mean 	0.56966930776834
scalar Network.dyn_peer[97] 	lookupHopsSig:mean 	15.8
scalar Network.dyn_peer[98] 	lookupTimeSig:mean 	2.0111111111111
scalar Network.dyn_peer[98] 	lookupStabilitySig:mean 	0.7846225081141
scalar Network.dyn_peer[98] 	lookupHopsSig:mean 	19.222222222222
scalar Network.dyn_peer[99] 	lookupTimeSig:mean 	2.3
scalar Network.dyn_peer[99] 	lookupStabilitySig:mean 	0.58016137033701
scalar Network.dyn_peer[99] 	lookupHopsSig:mean 	22.25
scalar Network.dyn_peer[100] 	lookupTimeSig:mean 	3.625
scalar Network.dyn_peer[100] 	lookupStabilitySig:mean 	0.83176816441119
scalar Network.dyn_peer[100] 	lookupHopsSig:mean 	35.5
scalar Network.dyn_peer[101] 	lookupTimeSig:mean 	2.58
scalar Network.dyn_peer[101] 	lookupStabilitySig:mean 	0.81312896460295
scalar Network.dyn_peer[101] 	lookupHopsSig:mean 	25
scalar Network.dyn_peer[102] 	lookupTimeSig:mean 	1.525
scalar Network.dyn_peer[102] 	lookupStabilitySig:mean 	0.60074703395367
scalar Network.dyn_peer[102] 	lookupHopsSig:mean 	14.5
scalar Network.dyn_peer[103] 	lookupTimeSig:mean 	1.9625
scalar Network.dyn_peer[103] 	lookupStabilitySig:mean 	0.82754383073188
scalar Network.dyn_peer[103] 	lookupHopsSig:mean 	18.75
scalar Network.dyn_peer[104] 	lookupTimeSig:mean 	1.3538461538462
scalar Network.dyn_peer[104] 	lookupStabilitySig:mean 	0.80161957562758
scalar Network.dyn_peer[104] 	lookupHopsSig:mean 	12.615384615385
scalar Network.dyn_peer[105] 	lookupTimeSig:mean 	2.36
scalar Network.dyn_peer[105] 	lookupStabilitySig:mean 	0.9316365968436
scalar Network.dyn_peer[105] 	lookupHopsSig:mean 	22.8
scalar Network.dyn_peer[106] 	lookupTimeSig:mean 	2.55
scalar Network.dyn_peer[106] 	lookupStabilitySig:mean 	0.12786259502172
scalar Network.dyn_peer[106] 	lookupHopsSig:mean 	25
scalar Network.dyn_peer[107] 	lookupTimeSig:mean 	2.5142857142857
scalar Network.dyn_peer[107] 	lookupStabilitySig:mean 	0.94361231782074
scalar Network.dyn_peer[107] 	lookupHopsSig:mean 	24.285714285714
scalar Network.dyn_peer[108] 	lookupTimeSig:mean 	1.6875
scalar Network.dyn_peer[108] 	lookupStabilitySig:mean 	0.82013477850705
scalar Network.dyn_peer[108] 	lookupHopsSig:mean 	16
scalar Network.dyn_peer[109] 	lookupTimeSig:mean 	2.12
scalar Network.dyn_peer[109] 	lookupStabilitySig:mean 	0.84421065226197
scalar Network.dyn_peer[109] 	lookupHopsSig:mean 	20.4
scalar Network.dyn_peer[110] 	lookupTimeSig:mean 	2.06
scalar Network.dyn_peer[110] 	lookupStabilitySig:mean 	0.63232760727406
scalar Network.dyn_peer[110] 	lookupHopsSig:mean 	19.8
scalar Network.dyn_peer[111] 	lookupTimeSig:mean 	2.1666666666667
scalar Network.dyn_peer[111] 	lookupStabilitySig:mean 	0.82738374370254
scalar Network.dyn_peer[111] 	lookupHopsSig:mean 	20.777777777778
scalar Network.dyn_peer[112] 	lookupTimeSig:mean 	2.3125
scalar Network.dyn_peer[112] 	lookupStabilitySig:mean 	0.67291145864874
scalar Network.dyn_peer[112] 	lookupHopsSig:mean 	22.25
scalar Network.dyn_peer[113] 	lookupTimeSig:mean 	2.9
scalar Network.dyn_peer[113] 	lookupStabilitySig:mean 	0.39422826220592
scalar Network.dyn_peer[113] 	lookupHopsSig:mean 	28.333333333333
scalar Network.dyn_peer[114] 	lookupTimeSig:mean 	3.3
scalar Network.dyn_peer[114] 	lookupStabilitySig:mean 	0.82096284876267
scalar Network.dyn_peer[114] 	lookupHopsSig:mean 	32.333333333333
scalar Network.dyn_peer[115] 	lookupTimeSig:mean 	1.7833333333333
scalar Network.dyn_peer[115] 	lookupStabilitySig:mean 	0.85934516678875
scalar Network.dyn_peer[115] 	lookupHopsSig:mean 	16.916666666667
scalar Network.dyn_peer[116] 	lookupTimeSig:mean 	1.2
scalar Network.dyn_peer[116] 	lookupStabilitySig:mean 	0.26169590155284
scalar Network.dyn_peer[116] 	lookupHopsSig:mean 	11.333333333333
scalar Network.dyn_peer[117] 	lookupTimeSig:mean 	1.8428571428571
scalar Network.dyn_peer[117] 	lookupStabilitySig:mean 	0.89178170543164
scalar Network.dyn_peer[117] 	lookupHopsSig:mean 	17.571428571429
scalar Network.dyn_peer[118] 	lookupTimeSig:mean 	2.36
scalar Network.dyn_peer[118] 	lookupStabilitySig:mean 	0.62486945986748
scalar Network.dyn_peer[118] 	lookupHopsSig:mean 	22.8
scalar Network.dyn_peer[119] 	lookupTimeSig:mean 	1.125
scalar Network.dyn_peer[119] 	lookupStabilitySig:mean 	0.42979574762285
scalar Network.dyn_peer[119] 	lookupHopsSig:mean 	10.5
scalar Network.dyn_peer[120] 	lookupTimeSig:mean 	1.92
scalar Network.dyn_peer[120] 	lookupStabilitySig:mean 	0.59639962129295
scalar Network.dyn_peer[120] 	lookupHopsSig:mean 	18.4
scalar Network.dyn_peer[121] 	lookupTimeSig:mean 	1.05
scalar Network.dyn_peer[121] 	lookupStabilitySig:mean 	0.83813838942608
scalar Network.dyn_peer[121] 	lookupHopsSig:mean 	9.5714285714286
scalar Network.dyn_peer[122] 	lookupTimeSig:mean 	1.8333333333333
scalar Network.dyn_peer[122] 	lookupStabilitySig:mean 	0.29561402400335
scalar Network.dyn_peer[122] 	lookupHopsSig:mean 	17.666666666667
scalar Network.dyn_peer[123] 	lookupTimeSig:mean 	1.5857142857143
scalar Network.dyn_peer[123] 	lookupStabilitySig:mean 	0.68184439092875
scalar Network.dyn_peer[123] 	lookupHopsSig:mean 	15
scalar Network.dyn_peer[124] 	lookupTimeSig:mean 	2.975
scalar Network.dyn_peer[124] 	lookupStabilitySig:mean 	0.48173729795963
scalar Network.dyn_peer[124] 	lookupHopsSig:mean 	29
scalar Network.dyn_peer[125] 	lookupTimeSig:mean 	1.9666666666667
scalar Network.dyn_peer[125] 	lookupStabilitySig:mean 	0.62044771636526
scalar Network.dyn_peer[125] 	lookupHopsSig:mean 	18.833333333333
scalar Network.dyn_peer[126] 	lookupTimeSig:mean 	1.5444444444444
scalar Network.dyn_peer[126] 	lookupStabilitySig:mean 	0.76028889495259
scalar Network.dyn_peer[126] 	lookupHopsSig:mean 	14.555555555556
scalar Network.dyn_peer[127] 	lookupTimeSig:mean 	1.8666666666667
scalar Network.dyn_peer[127] 	lookupStabilitySig:mean 	0.69473667753239
scalar Network.dyn_peer[127] 	lookupHopsSig:mean 	17.833333333333
scalar Network.dyn_peer[128] 	lookupTimeSig:mean 	1.74
scalar Network.dyn_peer[128] 	lookupStabilitySig:mean 	0.68603530079126
scalar Network.dyn_peer[128] 	lookupHopsSig:mean 	16.6
scalar Network.dyn_peer[129] 	lookupTimeSig:mean 	1.2307692307692
scalar Network.dyn_peer[129] 	lookupStabilitySig:mean 	0.91626907261805
scalar Network.dyn_peer[129] 	lookupHopsSig:mean 	11.384615384615
scalar Network.dyn_peer[130] 	lookupTimeSig:mean 	1.625
scalar Network.dyn_peer[130] 	lookupStabilitySig:mean 	0.52155093289912
scalar Network.dyn_peer[130] 	lookupHopsSig:mean 	15.5
scalar Network.dyn_peer[131] 	lookupTimeSig:mean 	2.0428571428571
scalar Network.dyn_peer[131] 	lookupStabilitySig:mean 	0.94382961333862
scalar Network.dyn_peer[131] 	lookupHopsSig:mean 	19.571428571429
scalar Network.dyn_peer[132] 	lookupTimeSig:mean 	2.3
scalar Network.dyn_peer[132] 	lookupStabilitySig:mean 	0.95233837256415
scalar Network.dyn_peer[132] 	lookupHopsSig:mean 	22.111111111111
scalar Network.dyn_peer[133] 	lookupTimeSig:mean 	2.0333333333333
scalar Network.dyn_peer[133] 	lookupStabilitySig:mean 	0.51217438777288
scalar Network.dyn_peer[133] 	lookupHopsSig:mean 	19.666666666667
scalar Network.dyn_peer[134] 	lookupTimeSig:mean 	2.0285714285714
scalar Network.dyn_peer[134] 	lookupStabilitySig:mean 	0.87685495442046
scalar Network.dyn_peer[134] 	lookupHopsSig:mean 	19.428571428571
scalar Network.dyn_peer[135] 	lookupTimeSig:mean 	1.74
scalar Network.dyn_peer[135] 	lookupStabilitySig:mean 	0.68695264235139
scalar Network.dyn_peer[135] 	lookupHopsSig:mean 	16.6
scalar Network.dyn_peer[136] 	lookupTimeSig:mean 	1.4166666666667
scalar Network.dyn_peer[136] 	lookupStabilitySig:mean 	0.6659064538156
scalar Network.dyn_peer[136] 	lookupHopsSig:mean 	13.333333333333
scalar Network.dyn_peer[137] 	lookupTimeSig:mean 	1.6142857142857
scalar Network.dyn_peer[137] 	lookupStabilitySig:mean 	0.71186490170658
scalar Network.dyn_peer[137] 	lookupHopsSig:mean 	15.285714285714
scalar Network.dyn_peer[138] 	lookupTimeSig:mean 	1.62
scalar Network.dyn_peer[138] 	lookupStabilitySig:mean 	0.72757310271263
scalar Network.dyn_peer[138] 	lookupHopsSig:mean 	15.4
scalar Network.dyn_peer[139] 	lookupTimeSig:mean 	1.15
scalar Network.dyn_peer[139] 	lookupStabilitySig:mean 	0.58141154423356
scalar Network.dyn_peer[139] 	lookupHopsSig:mean 	10.666666666667
scalar Network.dyn_peer[140] 	lookupTimeSig:mean 	2.8
scalar Network.dyn_peer[140] 	lookupStabilitySig:mean 	0.68419153466821
scalar Network.dyn_peer[140] 	lookupHopsSig:mean 	27.2
scalar Network.dyn_peer[141] 	lookupTimeSig:mean 	1.68
scalar Network.dyn_peer[141] 	lookupStabilitySig:mean 	0.54571858793497
scalar Network.dyn_peer[141] 	lookupHopsSig:mean 	16
scalar Network.dyn_peer[142] 	lookupTimeSig:mean 	1.3333333333333
scalar Network.dyn_peer[142] 	lookupStabilitySig:mean 	0.19782828291257
scalar Network.dyn_peer[142] 	lookupHopsSig:mean 	12.666666666667
scalar Network.dyn_peer[143] 	lookupTimeSig:mean 	2.1272727272727
scalar Network.dyn_peer[143] 	lookupStabilitySig:mean 	0.91874804364687
scalar Network.dyn_peer[143] 	lookupHopsSig:mean 	20.363636363636
scalar Network.dyn_peer[144] 	lookupTimeSig:mean 	0.88
scalar Network.dyn_peer[144] 	lookupStabilitySig:mean 	0.53357142210007
scalar Network.dyn_peer[144] 	lookupHopsSig:mean 	8
scalar Network.dyn_peer[145] 	lookupTimeSig:mean 	2.6333333333333
scalar Network.dyn_peer[145] 	lookupStabilitySig:mean 	0.63793682679534
scalar Network.dyn_peer[145] 	lookupHopsSig:mean 	25.666666666667
scalar Network.dyn_peer[146] 	lookupTimeSig:mean 	2.1
scalar Network.dyn_peer[146] 	lookupStabilitySig:mean 	0.75699769984931
scalar Network.dyn_peer[146] 	lookupHopsSig:mean 	20.25
scalar Network.dyn_peer[147] 	lookupTimeSig:mean 	1.425
scalar Network.dyn_peer[147] 	lookupStabilitySig:mean 	0.48661231063306
scalar Network.dyn_peer[147] 	lookupHopsSig:mean 	13.5
scalar Network.dyn_peer[148] 	lookupTimeSig:mean 	1.8875
scalar Network.dyn_peer[148] 	lookupStabilitySig:mean 	0.75121722090989
scalar Network.dyn_peer[148] 	lookupHopsSig:mean 	18
scalar Network.dyn_peer[149] 	lookupTimeSig:mean 	2.0142857142857
scalar Network.dyn_peer[149] 	lookupStabilitySig:mean 	0.82572399758335
scalar Network.dyn_peer[149] 	lookupHopsSig:mean 	19.285714285714
scalar Network.dyn_peer[150] 	lookupTimeSig:mean 	2
scalar Network.dyn_peer[150] 	lookupStabilitySig:mean 	0.92329432629049
scalar Network.dyn_peer[150] 	lookupHopsSig:mean 	19.166666666667
scalar Network.dyn_peer[151] 	lookupTimeSig:mean 	2.1666666666667
scalar Network.dyn_peer[151] 	lookupStabilitySig:mean 	0.93762591364793
scalar Network.dyn_peer[151] 	lookupHopsSig:mean 	20.833333333333
scalar Network.dyn_peer[152] 	lookupTimeSig:mean 	1.32
scalar Network.dyn_peer[152] 	lookupStabilitySig:mean 	0.5209815569222
scalar Network.dyn_peer[152] 	lookupHopsSig:mean 	12.4
scalar Network.dyn_peer[153] 	lookupTimeSig:mean 	1.6090909090909
scalar Network.dyn_peer[153] 	lookupStabilitySig:mean 	0.77403147120706
scalar Network.dyn_peer[153] 	lookupHopsSig:mean 	15.181818181818
scalar Network.dyn_peer[154] 	lookupTimeSig:mean 	4.06
scalar Network.dyn_peer[154] 	lookupStabilitySig:mean 	0.87870453000069
scalar Network.dyn_peer[154] 	lookupHopsSig:mean 	39.8
scalar Network.dyn_peer[155] 	lookupTimeSig:mean 	2.5
scalar Network.dyn_peer[155] 	lookupStabilitySig:mean 	0.4734255541116
scalar Network.dyn_peer[155] 	lookupHopsSig:mean 	24.25
scalar Network.dyn_peer[156] 	lookupTimeSig:mean 	0.9875
scalar Network.dyn_peer[156] 	lookupStabilitySig:mean 	0.69005161547102
scalar Network.dyn_peer[156] 	lookupHopsSig:mean 	9
scalar Network.dyn_peer[157] 	lookupTimeSig:mean 	1.36
scalar Network.dyn_peer[157] 	lookupStabilitySig:mean 	0.75312102253083
scalar Network.dyn_peer[157] 	lookupHopsSig:mean 	12.7
scalar Network.dyn_peer[158] 	lookupTimeSig:mean 	1.9333333333333
scalar Network.dyn_peer[158] 	lookupStabilitySig:mean 	0.39364353319009
scalar Network.dyn_peer[158] 	lookupHopsSig:mean 	18.666666666667
scalar Network.dyn_peer[159] 	lookupTimeSig:mean 	1.2333333333333
scalar Network.dyn_peer[159] 	lookupStabilitySig:mean 	0.22713816165924
scalar Network.dyn_peer[159] 	lookupHopsSig:mean 	11.666666666667
scalar Network.dyn_peer[160] 	lookupTimeSig:mean 	2.95
scalar Network.dyn_peer[160] 	lookupStabilitySig:mean 	0.72416951134801
scalar Network.dyn_peer[160] 	lookupHopsSig:mean 	29
scalar Network.dyn_peer[161] 	lookupTimeSig:mean 	1.25
scalar Network.dyn_peer[161] 	lookupStabilitySig:mean 	0.58692290633917
scalar Network.dyn_peer[161] 	lookupHopsSig:mean 	11.75
scalar Network.dyn_peer[162] 	lookupTimeSig:mean 	1.56
scalar Network.dyn_peer[162] 	lookupStabilitySig:mean 	0.5149524718523
scalar Network.dyn_peer[162] 	lookupHopsSig:mean 	14.8
scalar Network.dyn_peer[163] 	lookupTimeSig:mean 	1.35
scalar Network.dyn_peer[163] 	lookupStabilitySig:mean 	0.47631278261542
scalar Network.dyn_peer[163] 	lookupHopsSig:mean 	12.75
scalar Network.dyn_peer[164] 	lookupTimeSig:mean 	1.8333333333333
scalar Network.dyn_peer[164] 	lookupStabilitySig:mean 	0.4118279616038
scalar Network.dyn_peer[164] 	lookupHopsSig:mean 	17.666666666667
scalar Network.dyn_peer[165] 	lookupTimeSig:mean 	1.725
scalar Network.dyn_peer[165] 	lookupStabilitySig:mean 	0.48397989943624
scalar Network.dyn_peer[165] 	lookupHopsSig:mean 	16.5
scalar Network.dyn_peer[166] 	lookupTimeSig:mean 	2.675
scalar Network.dyn_peer[166] 	lookupStabilitySig:mean 	0.58165061846375
scalar Network.dyn_peer[166] 	lookupHopsSig:mean 	26
scalar Network.dyn_peer[167] 	lookupTimeSig:mean 	1.425
scalar Network.dyn_peer[167] 	lookupStabilitySig:mean 	0.77820855937898
scalar Network.dyn_peer[167] 	lookupHopsSig:mean 	13.5
scalar Network.dyn_peer[168] 	lookupTimeSig:mean 	1.8
scalar Network.dyn_peer[168] 	lookupStabilitySig:mean 	0.63431687727571
scalar Network.dyn_peer[168] 	lookupHopsSig:mean 	17.2
scalar Network.dyn_peer[169] 	lookupTimeSig:mean 	2.6
scalar Network.dyn_peer[169] 	lookupStabilitySig:mean 	0.73405797034502
scalar Network.dyn_peer[169] 	lookupHopsSig:mean 	25.5
scalar Network.dyn_peer[170] 	lookupTimeSig:mean 	1.8333333333333
scalar Network.dyn_peer[170] 	lookupStabilitySig:mean 	0.61192696044842
scalar Network.dyn_peer[170] 	lookupHopsSig:mean 	17.666666666667
scalar Network.dyn_peer[171] 	lookupTimeSig:mean 	2.55
scalar Network.dyn_peer[171] 	lookupStabilitySig:mean 	-0.06809701025486
scalar Network.dyn_peer[171] 	lookupHopsSig:mean 	25
scalar Network.dyn_peer[172] 	lookupTimeSig:mean 	1.675
scalar Network.dyn_peer[172] 	lookupStabilitySig:mean 	0.77196432929486
scalar Network.dyn_peer[172] 	lookupHopsSig:mean 	16
scalar Network.dyn_peer[173] 	lookupTimeSig:mean 	0.85
scalar Network.dyn_peer[173] 	lookupStabilitySig:mean 	0.69662915232281
scalar Network.dyn_peer[173] 	lookupHopsSig:mean 	7.6666666666667
scalar Network.dyn_peer[174] 	lookupTimeSig:mean 	2.5333333333333
scalar Network.dyn_peer[174] 	lookupStabilitySig:mean 	0.52946467200915
scalar Network.dyn_peer[174] 	lookupHopsSig:mean 	24.666666666667
scalar Network.dyn_peer[175] 	lookupTimeSig:mean 	1.8714285714286
scalar Network.dyn_peer[175] 	lookupStabilitySig:mean 	0.87110895397408
scalar Network.dyn_peer[175] 	lookupHopsSig:mean 	17.857142857143
scalar Network.dyn_peer[176] 	lookupTimeSig:mean 	1.28
scalar Network.dyn_peer[176] 	lookupStabilitySig:mean 	0.71653888747096
scalar Network.dyn_peer[176] 	lookupHopsSig:mean 	12
scalar Network.dyn_peer[177] 	lookupTimeSig:mean 	2.95
scalar Network.dyn_peer[177] 	lookupStabilitySig:mean 	0.63854747265577
scalar Network.dyn_peer[177] 	lookupHopsSig:mean 	29
scalar Network.dyn_peer[178] 	lookupTimeSig:mean 	3.25
scalar Network.dyn_peer[178] 	lookupStabilitySig:mean 	0.76888224482536
scalar Network.dyn_peer[178] 	lookupHopsSig:mean 	31.75
scalar Network.dyn_peer[179] 	lookupTimeSig:mean 	0.97272727272727
scalar Network.dyn_peer[179] 	lookupStabilitySig:mean 	0.7659692118283
scalar Network.dyn_peer[179] 	lookupHopsSig:mean 	8.8181818181818
scalar Network.dyn_peer[180] 	lookupTimeSig:mean 	1.1777777777778
scalar Network.dyn_peer[180] 	lookupStabilitySig:mean 	0.73006316253708
scalar Network.dyn_peer[180] 	lookupHopsSig:mean 	10.888888888889
scalar Network.dyn_peer[181] 	lookupTimeSig:mean 	1.9666666666667
scalar Network.dyn_peer[181] 	lookupStabilitySig:mean 	0.76225322919587
scalar Network.dyn_peer[181] 	lookupHopsSig:mean 	18.833333333333
scalar Network.dyn_peer[182] 	lookupTimeSig:mean 	1.85
scalar Network.dyn_peer[182] 	lookupStabilitySig:mean 	0.53107118140906
scalar Network.dyn_peer[182] 	lookupHopsSig:mean 	17.75
scalar Network.dyn_peer[183] 	lookupTimeSig:mean 	1.6714285714286
scalar Network.dyn_peer[183] 	lookupStabilitySig:mean 	0.79122929754002
scalar Network.dyn_peer[183] 	lookupHopsSig:mean 	15.857142857143
scalar Network.dyn_peer[184] 	lookupTimeSig:mean 	1.85
scalar Network.dyn_peer[184] 	lookupStabilitySig:mean 	0.49473683163524
scalar Network.dyn_peer[184] 	lookupHopsSig:mean 	17.75
scalar Network.dyn_peer[185] 	lookupTimeSig:mean 	3
scalar Network.dyn_peer[185] 	lookupStabilitySig:mean 	0.88288141787052
scalar Network.dyn_peer[185] 	lookupHopsSig:mean 	29.25
scalar Network.dyn_peer[186] 	lookupTimeSig:mean 	2.48
scalar Network.dyn_peer[186] 	lookupStabilitySig:mean 	0.95315456865355
scalar Network.dyn_peer[186] 	lookupHopsSig:mean 	23.9
scalar Network.dyn_peer[187] 	lookupTimeSig:mean 	1.64
scalar Network.dyn_peer[187] 	lookupStabilitySig:mean 	0.82526340493932
scalar Network.dyn_peer[187] 	lookupHopsSig:mean 	15.5
scalar Network.dyn_peer[188] 	lookupTimeSig:mean 	2.575
scalar Network.dyn_peer[188] 	lookupStabilitySig:mean 	0.47046959586442
scalar Network.dyn_peer[188] 	lookupHopsSig:mean 	25
scalar Network.dyn_peer[189] 	lookupTimeSig:mean 	0.96
scalar Network.dyn_peer[189] 	lookupStabilitySig:mean 	0.54632530808449
scalar Network.dyn_peer[189] 	lookupHopsSig:mean 	8.8
scalar Network.dyn_peer[190] 	lookupTimeSig:mean 	2.22
scalar Network.dyn_peer[190] 	lookupStabilitySig:mean 	0.93631253037602
scalar Network.dyn_peer[190] 	lookupHopsSig:mean 	21.3
scalar Network.dyn_peer[191] 	lookupTimeSig:mean 	1.3
scalar Network.dyn_peer[191] 	lookupStabilitySig:mean 	0.75248353059093
scalar Network.dyn_peer[191] 	lookupHopsSig:mean 	12.166666666667
scalar Network.dyn_peer[192] 	lookupTimeSig:mean 	1.08
scalar Network.dyn_peer[192] 	lookupStabilitySig:mean 	0.60440555289388
scalar Network.dyn_peer[192] 	lookupHopsSig:mean 	10
scalar Network.dyn_peer[193] 	lookupTimeSig:mean 	2.85
scalar Network.dyn_peer[193] 	lookupStabilitySig:mean 	0.76751019060612
scalar Network.dyn_peer[193] 	lookupHopsSig:mean 	27.75
scalar Network.dyn_peer[194] 	lookupTimeSig:mean 	0.95714285714286
scalar Network.dyn_peer[194] 	lookupStabilitySig:mean 	0.67195631377399
scalar Network.dyn_peer[194] 	lookupHopsSig:mean 	8.7142857142857
scalar Network.dyn_peer[195] 	lookupTimeSig:mean 	1.075
scalar Network.dyn_peer[195] 	lookupStabilitySig:mean 	0.45431546680629
scalar Network.dyn_peer[195] 	lookupHopsSig:mean 	10
scalar Network.dyn_peer[196] 	lookupTimeSig:mean 	1.6
scalar Network.dyn_peer[196] 	lookupStabilitySig:mean 	0.93672491392742
scalar Network.dyn_peer[196] 	lookupHopsSig:mean 	15.083333333333
scalar Network.dyn_peer[197] 	lookupTimeSig:mean 	2.5285714285714
scalar Network.dyn_peer[197] 	lookupStabilitySig:mean 	0.71126660451825
scalar Network.dyn_peer[197] 	lookupHopsSig:mean 	24.428571428571
scalar Network.dyn_peer[198] 	lookupTimeSig:mean 	2.1375
scalar Network.dyn_peer[198] 	lookupStabilitySig:mean 	0.71289049484767
scalar Network.dyn_peer[198] 	lookupHopsSig:mean 	20.5
scalar Network.dyn_peer[199] 	lookupTimeSig:mean 	1.5285714285714
scalar Network.dyn_peer[199] 	lookupStabilitySig:mean 	0.78246077655682
scalar Network.dyn_peer[199] 	lookupHopsSig:mean 	14.428571428571
scalar Network.dyn_peer[200] 	lookupTimeSig:mean 	4.35
scalar Network.dyn_peer[200] 	lookupStabilitySig:mean 	0.20274916291237
scalar Network.dyn_peer[200] 	lookupHopsSig:mean 	43
scalar Network.dyn_peer[201] 	lookupTimeSig:mean 	2.7
scalar Network.dyn_peer[201] 	lookupStabilitySig:mean 	0.54948326945305
scalar Network.dyn_peer[201] 	lookupHopsSig:mean 	26.333333333333
scalar Network.dyn_peer[202] 	lookupTimeSig:mean 	1.2533333333333
scalar Network.dyn_peer[202] 	lookupStabilitySig:mean 	0.90665928094337
scalar Network.dyn_peer[202] 	lookupHopsSig:mean 	11.6
scalar Network.dyn_peer[203] 	lookupTimeSig:mean 	1.8666666666667
scalar Network.dyn_peer[203] 	lookupStabilitySig:mean 	0.59667461117109
scalar Network.dyn_peer[203] 	lookupHopsSig:mean 	18
scalar Network.dyn_peer[204] 	lookupTimeSig:mean 	2.54
scalar Network.dyn_peer[204] 	lookupStabilitySig:mean 	0.96391058554873
scalar Network.dyn_peer[204] 	lookupHopsSig:mean 	24.5
scalar Network.dyn_peer[205] 	lookupTimeSig:mean 	1.65
scalar Network.dyn_peer[205] 	lookupStabilitySig:mean 	0.53479853644967
scalar Network.dyn_peer[205] 	lookupHopsSig:mean 	15.75
scalar Network.dyn_peer[206] 	lookupTimeSig:mean 	1.81
scalar Network.dyn_peer[206] 	lookupStabilitySig:mean 	0.84369477378204
scalar Network.dyn_peer[206] 	lookupHopsSig:mean 	17.2
scalar Network.dyn_peer[207] 	lookupTimeSig:mean 	1.275
scalar Network.dyn_peer[207] 	lookupStabilitySig:mean 	0.78203985467553
scalar Network.dyn_peer[207] 	lookupHopsSig:mean 	11.875
scalar Network.dyn_peer[208] 	lookupTimeSig:mean 	2.1
scalar Network.dyn_peer[208] 	lookupStabilitySig:mean 	0.75033069942147
scalar Network.dyn_peer[208] 	lookupHopsSig:mean 	20.2
scalar Network.dyn_peer[209] 	lookupTimeSig:mean 	1.5
scalar Network.dyn_peer[209] 	lookupStabilitySig:mean 	0.70821309338013
scalar Network.dyn_peer[209] 	lookupHopsSig:mean 	14.333333333333
scalar Network.dyn_peer[210] 	lookupTimeSig:mean 	2.48
scalar Network.dyn_peer[210] 	lookupStabilitySig:mean 	0.94142668982968
scalar Network.dyn_peer[210] 	lookupHopsSig:mean 	24
scalar Network.dyn_peer[211] 	lookupTimeSig:mean 	2.0571428571429
scalar Network.dyn_peer[211] 	lookupStabilitySig:mean 	0.90256143787077
scalar Network.dyn_peer[211] 	lookupHopsSig:mean 	19.714285714286
scalar Network.dyn_peer[212] 	lookupTimeSig:mean 	1.175
scalar Network.dyn_peer[212] 	lookupStabilitySig:mean 	0.53054746985435
scalar Network.dyn_peer[212] 	lookupHopsSig:mean 	11
scalar Network.dyn_peer[213] 	lookupTimeSig:mean 	3.1
scalar Network.dyn_peer[213] 	lookupStabilitySig:mean 	0.65288927530249
scalar Network.dyn_peer[213] 	lookupHopsSig:mean 	30.333333333333
scalar Network.dyn_peer[214] 	lookupTimeSig:mean 	2.7666666666667
scalar Network.dyn_peer[214] 	lookupStabilitySig:mean 	0.34096458554268
scalar Network.dyn_peer[214] 	lookupHopsSig:mean 	27
scalar Network.dyn_peer[215] 	lookupTimeSig:mean 	2.325
scalar Network.dyn_peer[215] 	lookupStabilitySig:mean 	0.66330015938729
scalar Network.dyn_peer[215] 	lookupHopsSig:mean 	22.5
scalar Network.dyn_peer[216] 	lookupTimeSig:mean 	1.8363636363636
scalar Network.dyn_peer[216] 	lookupStabilitySig:mean 	0.82469357321547
scalar Network.dyn_peer[216] 	lookupHopsSig:mean 	17.454545454545
scalar Network.dyn_peer[217] 	lookupTimeSig:mean 	0.53333333333333
scalar Network.dyn_peer[217] 	lookupStabilitySig:mean 	0.36666665474574
scalar Network.dyn_peer[217] 	lookupHopsSig:mean 	4.6666666666667
scalar Network.dyn_peer[218] 	lookupTimeSig:mean 	0.75
scalar Network.dyn_peer[218] 	lookupStabilitySig:mean 	0.44938725139946
scalar Network.dyn_peer[218] 	lookupHopsSig:mean 	6.75
scalar Network.dyn_peer[219] 	lookupTimeSig:mean 	2.6333333333333
scalar Network.dyn_peer[219] 	lookupStabilitySig:mean 	0.52068645258745
scalar Network.dyn_peer[219] 	lookupHopsSig:mean 	25.666666666667
scalar Network.dyn_peer[220] 	lookupTimeSig:mean 	1.36
scalar Network.dyn_peer[220] 	lookupStabilitySig:mean 	0.61946427896619
scalar Network.dyn_peer[220] 	lookupHopsSig:mean 	12.8
scalar Network.dyn_peer[221] 	lookupTimeSig:mean 	3.425
scalar Network.dyn_peer[221] 	lookupStabilitySig:mean 	0.90626545646228
scalar Network.dyn_peer[221] 	lookupHopsSig:mean 	33.5
scalar Network.dyn_peer[222] 	lookupTimeSig:mean 	1.9416666666667
scalar Network.dyn_peer[222] 	lookupStabilitySig:mean 	0.96674388918715
scalar Network.dyn_peer[222] 	lookupHopsSig:mean 	18.5
scalar Network.dyn_peer[223] 	lookupTimeSig:mean 	1.7428571428571
scalar Network.dyn_peer[223] 	lookupStabilitySig:mean 	0.81406951309847
scalar Network.dyn_peer[223] 	lookupHopsSig:mean 	16.571428571429
scalar Network.dyn_peer[224] 	lookupTimeSig:mean 	1.3333333333333
scalar Network.dyn_peer[224] 	lookupStabilitySig:mean 	0.63137426134199
scalar Network.dyn_peer[224] 	lookupHopsSig:mean 	12.5
scalar Network.dyn_peer[225] 	lookupTimeSig:mean 	2.1857142857143
scalar Network.dyn_peer[225] 	lookupStabilitySig:mean 	0.76895639007645
scalar Network.dyn_peer[225] 	lookupHopsSig:mean 	21
scalar Network.dyn_peer[226] 	lookupTimeSig:mean 	3.1
scalar Network.dyn_peer[226] 	lookupStabilitySig:mean 	0.73506144434214
scalar Network.dyn_peer[226] 	lookupHopsSig:mean 	30.333333333333
scalar Network.dyn_peer[227] 	lookupTimeSig:mean 	1.7625
scalar Network.dyn_peer[227] 	lookupStabilitySig:mean 	0.84880335308844
scalar Network.dyn_peer[227] 	lookupHopsSig:mean 	16.75
scalar Network.dyn_peer[228] 	lookupTimeSig:mean 	1.08
scalar Network.dyn_peer[228] 	lookupStabilitySig:mean 	0.69297463819385
scalar Network.dyn_peer[228] 	lookupHopsSig:mean 	10
scalar Network.dyn_peer[229] 	lookupTimeSig:mean 	1.575
scalar Network.dyn_peer[229] 	lookupStabilitySig:mean 	0.49826177582145
scalar Network.dyn_peer[229] 	lookupHopsSig:mean 	15
scalar Network.dyn_peer[230] 	lookupTimeSig:mean 	2.0416666666667
scalar Network.dyn_peer[230] 	lookupStabilitySig:mean 	0.95198887986286
scalar Network.dyn_peer[230] 	lookupHopsSig:mean 	19.5
scalar Network.dyn_peer[231] 	lookupTimeSig:mean 	4.0666666666667
scalar Network.dyn_peer[231] 	lookupStabilitySig:mean 	0.9000638872385
scalar Network.dyn_peer[231] 	lookupHopsSig:mean 	40
scalar Network.dyn_peer[232] 	lookupTimeSig:mean 	1.28
scalar Network.dyn_peer[232] 	lookupStabilitySig:mean 	0.63801712542772
scalar Network.dyn_peer[232] 	lookupHopsSig:mean 	12
scalar Network.dyn_peer[233] 	lookupTimeSig:mean 	1.25
scalar Network.dyn_peer[233] 	lookupStabilitySig:mean 	0.62260895990767
scalar Network.dyn_peer[233] 	lookupHopsSig:mean 	11.75
scalar Network.dyn_peer[234] 	lookupTimeSig:mean 	5.2
scalar Network.dyn_peer[234] 	lookupStabilitySig:mean 	0.79980353266001
scalar Network.dyn_peer[234] 	lookupHopsSig:mean 	51.5
scalar Network.dyn_peer[235] 	lookupTimeSig:mean 	1.45
scalar Network.dyn_peer[235] 	lookupStabilitySig:mean 	0.75162221863866
scalar Network.dyn_peer[235] 	lookupHopsSig:mean 	13.666666666667
scalar Network.dyn_peer[236] 	lookupTimeSig:mean 	2.1
scalar Network.dyn_peer[236] 	lookupStabilitySig:mean 	0.6776571127453
scalar Network.dyn_peer[236] 	lookupHopsSig:mean 	20.142857142857
scalar Network.dyn_peer[237] 	lookupTimeSig:mean 	1.7
scalar Network.dyn_peer[237] 	lookupStabilitySig:mean 	0.80972702950239
scalar Network.dyn_peer[237] 	lookupHopsSig:mean 	16.2
scalar Network.dyn_peer[238] 	lookupTimeSig:mean 	1.1111111111111
scalar Network.dyn_peer[238] 	lookupStabilitySig:mean 	0.84999982417665
scalar Network.dyn_peer[238] 	lookupHopsSig:mean 	10.222222222222
scalar Network.dyn_peer[239] 	lookupTimeSig:mean 	2.16
scalar Network.dyn_peer[239] 	lookupStabilitySig:mean 	0.89688573405147
scalar Network.dyn_peer[239] 	lookupHopsSig:mean 	20.8
scalar Network.dyn_peer[240] 	lookupTimeSig:mean 	1.67
scalar Network.dyn_peer[240] 	lookupStabilitySig:mean 	0.76994012258947
scalar Network.dyn_peer[240] 	lookupHopsSig:mean 	15.8
scalar Network.dyn_peer[241] 	lookupTimeSig:mean 	2.5
scalar Network.dyn_peer[241] 	lookupStabilitySig:mean 	0.85074510332197
scalar Network.dyn_peer[241] 	lookupHopsSig:mean 	24.25
scalar Network.dyn_peer[242] 	lookupTimeSig:mean 	1.8
scalar Network.dyn_peer[242] 	lookupStabilitySig:mean 	0.88446479210009
scalar Network.dyn_peer[242] 	lookupHopsSig:mean 	17.066666666667
scalar Network.dyn_peer[243] 	lookupTimeSig:mean 	1.61
scalar Network.dyn_peer[243] 	lookupStabilitySig:mean 	0.94010389451869
scalar Network.dyn_peer[243] 	lookupHopsSig:mean 	15.2
scalar Network.dyn_peer[244] 	lookupTimeSig:mean 	1.7625
scalar Network.dyn_peer[244] 	lookupStabilitySig:mean 	0.71903058234602
scalar Network.dyn_peer[244] 	lookupHopsSig:mean 	16.75
scalar Network.dyn_peer[245] 	lookupTimeSig:mean 	1.95
scalar Network.dyn_peer[245] 	lookupStabilitySig:mean 	0.93722410756163
scalar Network.dyn_peer[245] 	lookupHopsSig:mean 	18.625
scalar Network.dyn_peer[246] 	lookupTimeSig:mean 	5.6
scalar Network.dyn_peer[246] 	lookupStabilitySig:mean 	0.90739666111767
scalar Network.dyn_peer[246] 	lookupHopsSig:mean 	55.333333333333
scalar Network.dyn_peer[247] 	lookupTimeSig:mean 	2.55
scalar Network.dyn_peer[247] 	lookupStabilitySig:mean 	0.79653152206447
scalar Network.dyn_peer[247] 	lookupHopsSig:mean 	24.625
scalar Network.dyn_peer[248] 	lookupTimeSig:mean 	1.5
scalar Network.dyn_peer[248] 	lookupStabilitySig:mean 	0.77648049597628
scalar Network.dyn_peer[248] 	lookupHopsSig:mean 	14.1
scalar Network.dyn_peer[249] 	lookupTimeSig:mean 	3.45
scalar Network.dyn_peer[249] 	lookupStabilitySig:mean 	0.140625
scalar Network.dyn_peer[249] 	lookupHopsSig:mean 	34
scalar Network.dyn_peer[250] 	lookupTimeSig:mean 	1.85
scalar Network.dyn_peer[250] 	lookupStabilitySig:mean 	0.86586932310214
scalar Network.dyn_peer[250] 	lookupHopsSig:mean 	17.666666666667
scalar Network.dyn_peer[251] 	lookupTimeSig:mean 	1.825
scalar Network.dyn_peer[251] 	lookupStabilitySig:mean 	0.91869407944614
scalar Network.dyn_peer[251] 	lookupHopsSig:mean 	17.375
scalar Network.dyn_peer[252] 	lookupTimeSig:mean 	2.3
scalar Network.dyn_peer[252] 	lookupStabilitySig:mean 	0.75938746333122
scalar Network.dyn_peer[252] 	lookupHopsSig:mean 	22.333333333333
scalar Network.dyn_peer[253] 	lookupTimeSig:mean 	2.925
scalar Network.dyn_peer[253] 	lookupStabilitySig:mean 	0.86235723597929
scalar Network.dyn_peer[253] 	lookupHopsSig:mean 	28.5
scalar Network.dyn_peer[254] 	lookupTimeSig:mean 	5.7
scalar Network.dyn_peer[254] 	lookupStabilitySig:mean 	0.22395833581686
scalar Network.dyn_peer[254] 	lookupHopsSig:mean 	56.5
scalar Network.dyn_peer[255] 	lookupTimeSig:mean 	1.1666666666667
scalar Network.dyn_peer[255] 	lookupStabilitySig:mean 	0.321360150973
scalar Network.dyn_peer[255] 	lookupHopsSig:mean 	11
scalar Network.dyn_peer[256] 	lookupTimeSig:mean 	1.84
scalar Network.dyn_peer[256] 	lookupStabilitySig:mean 	0.74135309816338
scalar Network.dyn_peer[256] 	lookupHopsSig:mean 	17.6
scalar Network.dyn_peer[257] 	lookupTimeSig:mean 	1.9454545454545
scalar Network.dyn_peer[257] 	lookupStabilitySig:mean 	0.9248943078247
scalar Network.dyn_peer[257] 	lookupHopsSig:mean 	18.545454545455
scalar Network.dyn_peer[258] 	lookupTimeSig:mean 	1.61
scalar Network.dyn_peer[258] 	lookupStabilitySig:mean 	0.94026314415969
scalar Network.dyn_peer[258] 	lookupHopsSig:mean 	15.2
scalar Network.dyn_peer[259] 	lookupTimeSig:mean 	1.4625
scalar Network.dyn_peer[259] 	lookupStabilitySig:mean 	0.92121630138718
scalar Network.dyn_peer[259] 	lookupHopsSig:mean 	13.75
scalar Network.dyn_peer[260] 	lookupTimeSig:mean 	1.9142857142857
scalar Network.dyn_peer[260] 	lookupStabilitySig:mean 	0.92237007584689
scalar Network.dyn_peer[260] 	lookupHopsSig:mean 	18.285714285714
scalar Network.dyn_peer[261] 	lookupTimeSig:mean 	2.52
scalar Network.dyn_peer[261] 	lookupStabilitySig:mean 	0.81298216171563
scalar Network.dyn_peer[261] 	lookupHopsSig:mean 	24.4
scalar Network.dyn_peer[262] 	lookupTimeSig:mean 	1.3727272727273
scalar Network.dyn_peer[262] 	lookupStabilitySig:mean 	0.84374801450494
scalar Network.dyn_peer[262] 	lookupHopsSig:mean 	12.818181818182
scalar Network.dyn_peer[263] 	lookupTimeSig:mean 	1.28
scalar Network.dyn_peer[263] 	lookupStabilitySig:mean 	0.67248409502208
scalar Network.dyn_peer[263] 	lookupHopsSig:mean 	12
scalar Network.dyn_peer[264] 	lookupTimeSig:mean 	2.75
scalar Network.dyn_peer[264] 	lookupStabilitySig:mean 	0.57295876787975
scalar Network.dyn_peer[264] 	lookupHopsSig:mean 	26.75
scalar Network.dyn_peer[265] 	lookupTimeSig:mean 	2.04
scalar Network.dyn_peer[265] 	lookupStabilitySig:mean 	0.58355293050408
scalar Network.dyn_peer[265] 	lookupHopsSig:mean 	19.6
scalar Network.dyn_peer[266] 	lookupTimeSig:mean 	0.925
scalar Network.dyn_peer[266] 	lookupStabilitySig:mean 	0.44118906930089
scalar Network.dyn_peer[266] 	lookupHopsSig:mean 	8.5
scalar Network.dyn_peer[267] 	lookupTimeSig:mean 	2.825
scalar Network.dyn_peer[267] 	lookupStabilitySig:mean 	0.9268083574716
scalar Network.dyn_peer[267] 	lookupHopsSig:mean 	27.5
scalar Network.dyn_peer[268] 	lookupTimeSig:mean 	1.3857142857143
scalar Network.dyn_peer[268] 	lookupStabilitySig:mean 	0.93354711681604
scalar Network.dyn_peer[268] 	lookupHopsSig:mean 	13
scalar Network.dyn_peer[269] 	lookupTimeSig:mean 	1.775
scalar Network.dyn_peer[269] 	lookupStabilitySig:mean 	0.58093485608697
scalar Network.dyn_peer[269] 	lookupHopsSig:mean 	17
scalar Network.dyn_peer[270] 	lookupTimeSig:mean 	3.9
scalar Network.dyn_peer[270] 	lookupStabilitySig:mean 	0.78234472125769
scalar Network.dyn_peer[270] 	lookupHopsSig:mean 	38.5
scalar Network.dyn_peer[271] 	lookupTimeSig:mean 	1.7111111111111
scalar Network.dyn_peer[271] 	lookupStabilitySig:mean 	0.76481125358906
scalar Network.dyn_peer[271] 	lookupHopsSig:mean 	16.222222222222
scalar Network.dyn_peer[272] 	lookupTimeSig:mean 	3.8
scalar Network.dyn_peer[272] 	lookupStabilitySig:mean 	0.85355621017516
scalar Network.dyn_peer[272] 	lookupHopsSig:mean 	37.25
scalar Network.dyn_peer[273] 	lookupTimeSig:mean 	2.14
scalar Network.dyn_peer[273] 	lookupStabilitySig:mean 	0.52935826778412
scalar Network.dyn_peer[273] 	lookupHopsSig:mean 	20.6
scalar Network.dyn_peer[274] 	lookupTimeSig:mean 	1.075
scalar Network.dyn_peer[274] 	lookupStabilitySig:mean 	0.61166666448116
scalar Network.dyn_peer[274] 	lookupHopsSig:mean 	10
scalar Network.dyn_peer[275] 	lookupTimeSig:mean 	2.1142857142857
scalar Network.dyn_peer[275] 	lookupStabilitySig:mean 	0.94393900396036
scalar Network.dyn_peer[275] 	lookupHopsSig:mean 	20.285714285714
scalar Network.dyn_peer[276] 	lookupTimeSig:mean 	1.4
scalar Network.dyn_peer[276] 	lookupStabilitySig:mean 	0.93679679526637
scalar Network.dyn_peer[276] 	lookupHopsSig:mean 	13.111111111111
scalar Network.dyn_peer[277] 	lookupTimeSig:mean 	0.92
scalar Network.dyn_peer[277] 	lookupStabilitySig:mean 	0.56373182013631
scalar Network.dyn_peer[277] 	lookupHopsSig:mean 	8.4
scalar Network.dyn_peer[278] 	lookupTimeSig:mean 	2.4333333333333
scalar Network.dyn_peer[278] 	lookupStabilitySig:mean 	0.91119404401009
scalar Network.dyn_peer[278] 	lookupHopsSig:mean 	23.5
scalar Network.dyn_peer[279] 	lookupTimeSig:mean 	1.75
scalar Network.dyn_peer[279] 	lookupStabilitySig:mean 	0.89555423955123
scalar Network.dyn_peer[279] 	lookupHopsSig:mean 	16.666666666667
scalar Network.dyn_peer[280] 	lookupTimeSig:mean 	1.2636363636364
scalar Network.dyn_peer[280] 	lookupStabilitySig:mean 	0.8189240438779
scalar Network.dyn_peer[280] 	lookupHopsSig:mean 	11.727272727273
scalar Network.dyn_peer[281] 	lookupTimeSig:mean 	2.36
scalar Network.dyn_peer[281] 	lookupStabilitySig:mean 	0.59006507098675
scalar Network.dyn_peer[281] 	lookupHopsSig:mean 	22.8
scalar Network.dyn_peer[282] 	lookupTimeSig:mean 	1.25
scalar Network.dyn_peer[282] 	lookupStabilitySig:mean 	0.79429746977985
scalar Network.dyn_peer[282] 	lookupHopsSig:mean 	11.666666666667
scalar Network.dyn_peer[283] 	lookupTimeSig:mean 	3.1
scalar Network.dyn_peer[283] 	lookupStabilitySig:mean 	0.9143500640057
scalar Network.dyn_peer[283] 	lookupHopsSig:mean 	30.25
scalar Network.dyn_peer[284] 	lookupTimeSig:mean 	1.75
scalar Network.dyn_peer[284] 	lookupStabilitySig:mean 	0.90096286994716
scalar Network.dyn_peer[284] 	lookupHopsSig:mean 	16.666666666667
scalar Network.dyn_peer[285] 	lookupTimeSig:mean 	2.425
scalar Network.dyn_peer[285] 	lookupStabilitySig:mean 	0.86756007559597
scalar Network.dyn_peer[285] 	lookupHopsSig:mean 	23.5
scalar Network.dyn_peer[286] 	lookupTimeSig:mean 	2.75
scalar Network.dyn_peer[286] 	lookupStabilitySig:mean 	0.66999829444103
scalar Network.dyn_peer[286] 	lookupHopsSig:mean 	26.75
scalar Network.dyn_peer[287] 	lookupTimeSig:mean 	1.65
scalar Network.dyn_peer[287] 	lookupStabilitySig:mean 	0.49535257928073
scalar Network.dyn_peer[287] 	lookupHopsSig:mean 	15.75
scalar Network.dyn_peer[288] 	lookupTimeSig:mean 	1.975
scalar Network.dyn_peer[288] 	lookupStabilitySig:mean 	0.86314729787409
scalar Network.dyn_peer[288] 	lookupHopsSig:mean 	19
scalar Network.dyn_peer[289] 	lookupTimeSig:mean 	1.6625
scalar Network.dyn_peer[289] 	lookupStabilitySig:mean 	0.923298540627
scalar Network.dyn_peer[289] 	lookupHopsSig:mean 	15.75
scalar Network.dyn_peer[290] 	lookupTimeSig:mean 	1.6
scalar Network.dyn_peer[290] 	lookupStabilitySig:mean 	0.71007238700986
scalar Network.dyn_peer[290] 	lookupHopsSig:mean 	15.166666666667
scalar Network.dyn_peer[291] 	lookupTimeSig:mean 	3.14
scalar Network.dyn_peer[291] 	lookupStabilitySig:mean 	0.76620408259332
scalar Network.dyn_peer[291] 	lookupHopsSig:mean 	30.6
scalar Network.dyn_peer[292] 	lookupTimeSig:mean 	2.3
scalar Network.dyn_peer[292] 	lookupStabilitySig:mean 	0.76575065900882
scalar Network.dyn_peer[292] 	lookupHopsSig:mean 	22.333333333333
scalar Network.dyn_peer[293] 	lookupTimeSig:mean 	1.4555555555556
scalar Network.dyn_peer[293] 	lookupStabilitySig:mean 	0.88532135325174
scalar Network.dyn_peer[293] 	lookupHopsSig:mean 	13.666666666667
scalar Network.dyn_peer[294] 	lookupTimeSig:mean 	1.3166666666667
scalar Network.dyn_peer[294] 	lookupStabilitySig:mean 	0.83045059155362
scalar Network.dyn_peer[294] 	lookupHopsSig:mean 	12.25
scalar Network.dyn_peer[295] 	lookupTimeSig:mean 	2.775
scalar Network.dyn_peer[295] 	lookupStabilitySig:mean 	0.70566356228665
scalar Network.dyn_peer[295] 	lookupHopsSig:mean 	27
scalar Network.dyn_peer[296] 	lookupTimeSig:mean 	2.4444444444444
scalar Network.dyn_peer[296] 	lookupStabilitySig:mean 	0.95779622516905
scalar Network.dyn_peer[296] 	lookupHopsSig:mean 	23.555555555556
scalar Network.dyn_peer[297] 	lookupTimeSig:mean 	1.3
scalar Network.dyn_peer[297] 	lookupStabilitySig:mean 	0.78775947872135
scalar Network.dyn_peer[297] 	lookupHopsSig:mean 	12.111111111111
scalar Network.dyn_peer[298] 	lookupTimeSig:mean 	2.54
scalar Network.dyn_peer[298] 	lookupStabilitySig:mean 	0.91488205622882
scalar Network.dyn_peer[298] 	lookupHopsSig:mean 	24.6
scalar Network.dyn_peer[299] 	lookupTimeSig:mean 	1.7
scalar Network.dyn_peer[299] 	lookupStabilitySig:mean 	0.43768116086721
scalar Network.dyn_peer[299] 	lookupHopsSig:mean 	16.333333333333
scalar Network.dyn_peer[300] 	lookupTimeSig:mean 	1.55
scalar Network.dyn_peer[300] 	lookupStabilitySig:mean 	0.045454546809196
scalar Network.dyn_peer[300] 	lookupHopsSig:mean 	15
scalar Network.dyn_peer[301] 	lookupTimeSig:mean 	1.5
scalar Network.dyn_peer[301] 	lookupStabilitySig:mean 	0.52890965938568
scalar Network.dyn_peer[301] 	lookupHopsSig:mean 	14.2
scalar Network.dyn_peer[302] 	lookupTimeSig:mean 	1.9
scalar Network.dyn_peer[302] 	lookupStabilitySig:mean 	0.52785987158616
scalar Network.dyn_peer[302] 	lookupHopsSig:mean 	18.333333333333
scalar Network.dyn_peer[303] 	lookupTimeSig:mean 	2.1
scalar Network.dyn_peer[303] 	lookupStabilitySig:mean 	0.34873127440612
scalar Network.dyn_peer[303] 	lookupHopsSig:mean 	20.333333333333
scalar Network.dyn_peer[304] 	lookupTimeSig:mean 	0.725
scalar Network.dyn_peer[304] 	lookupStabilitySig:mean 	0.50391602516174
scalar Network.dyn_peer[304] 	lookupHopsSig:mean 	6.5
scalar Network.dyn_peer[305] 	lookupTimeSig:mean 	2.275
scalar Network.dyn_peer[305] 	lookupStabilitySig:mean 	0.4507906101644
scalar Network.dyn_peer[305] 	lookupHopsSig:mean 	22
scalar Network.dyn_peer[306] 	lookupTimeSig:mean 	1.4666666666667
scalar Network.dyn_peer[306] 	lookupStabilitySig:mean 	0.29007936269045
scalar Network.dyn_peer[306] 	lookupHopsSig:mean 	14
scalar Network.dyn_peer[307] 	lookupTimeSig:mean 	2.4
scalar Network.dyn_peer[307] 	lookupStabilitySig:mean 	0.51817740499973
scalar Network.dyn_peer[307] 	lookupHopsSig:mean 	23.25
scalar Network.dyn_peer[308] 	lookupTimeSig:mean 	1.6307692307692
scalar Network.dyn_peer[308] 	lookupStabilitySig:mean 	0.9645089295048
scalar Network.dyn_peer[308] 	lookupHopsSig:mean 	15.384615384615
scalar Network.dyn_peer[309] 	lookupTimeSig:mean 	2.575
scalar Network.dyn_peer[309] 	lookupStabilitySig:mean 	0.67617170978338
scalar Network.dyn_peer[309] 	lookupHopsSig:mean 	25
scalar Network.dyn_peer[310] 	lookupTimeSig:mean 	2.225
scalar Network.dyn_peer[310] 	lookupStabilitySig:mean 	0.95786130358465
scalar Network.dyn_peer[310] 	lookupHopsSig:mean 	21.333333333333
scalar Network.dyn_peer[311] 	lookupTimeSig:mean 	2.55
scalar Network.dyn_peer[311] 	lookupStabilitySig:mean 	0.53333331644535
scalar Network.dyn_peer[311] 	lookupHopsSig:mean 	25
scalar Network.dyn_peer[312] 	lookupTimeSig:mean 	1.2
scalar Network.dyn_peer[312] 	lookupStabilitySig:mean 	0.80999035779387
scalar Network.dyn_peer[312] 	lookupHopsSig:mean 	11.1
scalar Network.dyn_peer[313] 	lookupTimeSig:mean 	2.16
scalar Network.dyn_peer[313] 	lookupStabilitySig:mean 	0.6812621191144
scalar Network.dyn_peer[313] 	lookupHopsSig:mean 	20.8
scalar Network.dyn_peer[314] 	lookupTimeSig:mean 	1.6
scalar Network.dyn_peer[314] 	lookupStabilitySig:mean 	0.86765517666936
scalar Network.dyn_peer[314] 	lookupHopsSig:mean 	15.166666666667
scalar Network.dyn_peer[315] 	lookupTimeSig:mean 	2.0444444444444
scalar Network.dyn_peer[315] 	lookupStabilitySig:mean 	0.95403703122348
scalar Network.dyn_peer[315] 	lookupHopsSig:mean 	19.555555555556
scalar Network.dyn_peer[316] 	lookupTimeSig:mean 	1.4333333333333
scalar Network.dyn_peer[316] 	lookupStabilitySig:mean 	0.88166062802904
scalar Network.dyn_peer[316] 	lookupHopsSig:mean 	13.444444444444
scalar Network.dyn_peer[317] 	lookupTimeSig:mean 	2.525
scalar Network.dyn_peer[317] 	lookupStabilitySig:mean 	0.90507404156961
scalar Network.dyn_peer[317] 	lookupHopsSig:mean 	24.5
scalar Network.dyn_peer[318] 	lookupTimeSig:mean 	1.2
scalar Network.dyn_peer[318] 	lookupStabilitySig:mean 	0.63451697630808
scalar Network.dyn_peer[318] 	lookupHopsSig:mean 	11.25
scalar Network.dyn_peer[319] 	lookupTimeSig:mean 	1.8
scalar Network.dyn_peer[319] 	lookupStabilitySig:mean 	0.84340597025584
scalar Network.dyn_peer[319] 	lookupHopsSig:mean 	17.125
scalar Network.dyn_peer[320] 	lookupTimeSig:mean 	1.7222222222222
scalar Network.dyn_peer[320] 	lookupStabilitySig:mean 	0.91799651065634
scalar Network.dyn_peer[320] 	lookupHopsSig:mean 	16.333333333333
scalar Network.dyn_peer[321] 	lookupTimeSig:mean 	2.8333333333333
scalar Network.dyn_peer[321] 	lookupStabilitySig:mean 	0.94122044323012
scalar Network.dyn_peer[321] 	lookupHopsSig:mean 	27.5
scalar Network.dyn_peer[322] 	lookupTimeSig:mean 	2.1428571428571
scalar Network.dyn_peer[322] 	lookupStabilitySig:mean 	0.95181344595871
scalar Network.dyn_peer[322] 	lookupHopsSig:mean 	20.571428571429
scalar Network.dyn_peer[323] 	lookupTimeSig:mean 	2.1375
scalar Network.dyn_peer[323] 	lookupStabilitySig:mean 	0.75521098868921
scalar Network.dyn_peer[323] 	lookupHopsSig:mean 	20.5
scalar Network.dyn_peer[324] 	lookupTimeSig:mean 	1.9875
scalar Network.dyn_peer[324] 	lookupStabilitySig:mean 	0.89318438293412
scalar Network.dyn_peer[324] 	lookupHopsSig:mean 	19
scalar Network.dyn_peer[325] 	lookupTimeSig:mean 	1.9
scalar Network.dyn_peer[325] 	lookupStabilitySig:mean 	0.86686563258991
scalar Network.dyn_peer[325] 	lookupHopsSig:mean 	18.25
scalar Network.dyn_peer[326] 	lookupTimeSig:mean 	1.95
scalar Network.dyn_peer[326] 	lookupStabilitySig:mean 	0.50208334624767
scalar Network.dyn_peer[326] 	lookupHopsSig:mean 	19
scalar Network.dyn_peer[327] 	lookupTimeSig:mean 	2.25
scalar Network.dyn_peer[327] 	lookupStabilitySig:mean 	0.47087379172444
scalar Network.dyn_peer[327] 	lookupHopsSig:mean 	21.75
scalar Network.dyn_peer[328] 	lookupTimeSig:mean 	1.67
scalar Network.dyn_peer[328] 	lookupStabilitySig:mean 	0.928140942147
scalar Network.dyn_peer[328] 	lookupHopsSig:mean 	15.8
scalar Network.dyn_peer[329] 	lookupTimeSig:mean 	2.2222222222222
scalar Network.dyn_peer[329] 	lookupStabilitySig:mean 	0.90491530619976
scalar Network.dyn_peer[329] 	lookupHopsSig:mean 	21.333333333333
scalar Network.dyn_peer[330] 	lookupTimeSig:mean 	2.1833333333333
scalar Network.dyn_peer[330] 	lookupStabilitySig:mean 	0.69410962797701
scalar Network.dyn_peer[330] 	lookupHopsSig:mean 	21
scalar Network.dyn_peer[331] 	lookupTimeSig:mean 	2.4714285714286
scalar Network.dyn_peer[331] 	lookupStabilitySig:mean 	0.95471323760492
scalar Network.dyn_peer[331] 	lookupHopsSig:mean 	23.857142857143
scalar Network.dyn_peer[332] 	lookupTimeSig:mean 	1.025
scalar Network.dyn_peer[332] 	lookupStabilitySig:mean 	0.5042572459206
scalar Network.dyn_peer[332] 	lookupHopsSig:mean 	9.5
scalar Network.dyn_peer[333] 	lookupTimeSig:mean 	1.9222222222222
scalar Network.dyn_peer[333] 	lookupStabilitySig:mean 	0.88493077218946
scalar Network.dyn_peer[333] 	lookupHopsSig:mean 	18.333333333333
scalar Network.dyn_peer[334] 	lookupTimeSig:mean 	2.56
scalar Network.dyn_peer[334] 	lookupStabilitySig:mean 	0.87934613600373
scalar Network.dyn_peer[334] 	lookupHopsSig:mean 	24.8
scalar Network.dyn_peer[335] 	lookupTimeSig:mean 	1.47
scalar Network.dyn_peer[335] 	lookupStabilitySig:mean 	0.81358124045655
scalar Network.dyn_peer[335] 	lookupHopsSig:mean 	13.8
scalar Network.dyn_peer[336] 	lookupTimeSig:mean 	1.7
scalar Network.dyn_peer[336] 	lookupStabilitySig:mean 	0.87406638277961
scalar Network.dyn_peer[336] 	lookupHopsSig:mean 	16.142857142857
scalar Network.dyn_peer[337] 	lookupTimeSig:mean 	1.825
scalar Network.dyn_peer[337] 	lookupStabilitySig:mean 	0.70855746697634
scalar Network.dyn_peer[337] 	lookupHopsSig:mean 	17.5
scalar Network.dyn_peer[338] 	lookupTimeSig:mean 	2.6333333333333
scalar Network.dyn_peer[338] 	lookupStabilitySig:mean 	0.85913765554627
scalar Network.dyn_peer[338] 	lookupHopsSig:mean 	25.666666666667
scalar Network.dyn_peer[339] 	lookupTimeSig:mean 	2.625
scalar Network.dyn_peer[339] 	lookupStabilitySig:mean 	0.94331157067791
scalar Network.dyn_peer[339] 	lookupHopsSig:mean 	25.375
scalar Network.dyn_peer[340] 	lookupTimeSig:mean 	0.8
scalar Network.dyn_peer[340] 	lookupStabilitySig:mean 	0.59081700108945
scalar Network.dyn_peer[340] 	lookupHopsSig:mean 	7.2
scalar Network.dyn_peer[341] 	lookupTimeSig:mean 	1.6571428571429
scalar Network.dyn_peer[341] 	lookupStabilitySig:mean 	0.82549301774374
scalar Network.dyn_peer[341] 	lookupHopsSig:mean 	15.714285714286
scalar Network.dyn_peer[342] 	lookupTimeSig:mean 	2
scalar Network.dyn_peer[342] 	lookupStabilitySig:mean 	0.60002643987536
scalar Network.dyn_peer[342] 	lookupHopsSig:mean 	19.5
scalar Network.dyn_peer[343] 	lookupTimeSig:mean 	1.7
scalar Network.dyn_peer[343] 	lookupStabilitySig:mean 	0.85481124243233
scalar Network.dyn_peer[343] 	lookupHopsSig:mean 	16.125
scalar Network.dyn_peer[344] 	lookupTimeSig:mean 	1.82
scalar Network.dyn_peer[344] 	lookupStabilitySig:mean 	0.90164390467107
scalar Network.dyn_peer[344] 	lookupHopsSig:mean 	17.4
scalar Network.dyn_peer[345] 	lookupTimeSig:mean 	1.9583333333333
scalar Network.dyn_peer[345] 	lookupStabilitySig:mean 	0.9290478573336
scalar Network.dyn_peer[345] 	lookupHopsSig:mean 	18.666666666667
scalar Network.dyn_peer[346] 	lookupTimeSig:mean 	2
scalar Network.dyn_peer[346] 	lookupStabilitySig:mean 	0.68861807622015
scalar Network.dyn_peer[346] 	lookupHopsSig:mean 	19.2
scalar Network.dyn_peer[347] 	lookupTimeSig:mean 	2.7
scalar Network.dyn_peer[347] 	lookupStabilitySig:mean 	0.90569400461391
scalar Network.dyn_peer[347] 	lookupHopsSig:mean 	26.25
scalar Network.dyn_peer[348] 	lookupTimeSig:mean 	1.275
scalar Network.dyn_peer[348] 	lookupStabilitySig:mean 	0.84064962924458
scalar Network.dyn_peer[348] 	lookupHopsSig:mean 	11.875
scalar Network.dyn_peer[349] 	lookupTimeSig:mean 	2.56
scalar Network.dyn_peer[349] 	lookupStabilitySig:mean 	0.84550173096359
scalar Network.dyn_peer[349] 	lookupHopsSig:mean 	24.8
scalar Network.dyn_peer[350] 	lookupTimeSig:mean 	1.2
scalar Network.dyn_peer[350] 	lookupStabilitySig:mean 	0.60290874429047
scalar Network.dyn_peer[350] 	lookupHopsSig:mean 	11.2
scalar Network.dyn_peer[351] 	lookupTimeSig:mean 	2.0333333333333
scalar Network.dyn_peer[351] 	lookupStabilitySig:mean 	0.75395397127916
scalar Network.dyn_peer[351] 	lookupHopsSig:mean 	19.444444444444
scalar Network.dyn_peer[352] 	lookupTimeSig:mean 	1.8333333333333
scalar Network.dyn_peer[352] 	lookupStabilitySig:mean 	0.46103158469001
scalar Network.dyn_peer[352] 	lookupHopsSig:mean 	17.666666666667
scalar Network.dyn_peer[353] 	lookupTimeSig:mean 	1.55
scalar Network.dyn_peer[353] 	lookupStabilitySig:mean 	0.49373146705329
scalar Network.dyn_peer[353] 	lookupHopsSig:mean 	14.75
scalar Network.dyn_peer[354] 	lookupTimeSig:mean 	2.4666666666667
scalar Network.dyn_peer[354] 	lookupStabilitySig:mean 	0.58281027525663
scalar Network.dyn_peer[354] 	lookupHopsSig:mean 	24
scalar Network.dyn_peer[355] 	lookupTimeSig:mean 	1.5909090909091
scalar Network.dyn_peer[355] 	lookupStabilitySig:mean 	0.93930878231979
scalar Network.dyn_peer[355] 	lookupHopsSig:mean 	15
scalar Network.dyn_peer[356] 	lookupTimeSig:mean 	1.8909090909091
scalar Network.dyn_peer[356] 	lookupStabilitySig:mean 	0.93405342542312
scalar Network.dyn_peer[356] 	lookupHopsSig:mean 	18
scalar Network.dyn_peer[357] 	lookupTimeSig:mean 	2.275
scalar Network.dyn_peer[357] 	lookupStabilitySig:mean 	0.61916182236746
scalar Network.dyn_peer[357] 	lookupHopsSig:mean 	22
scalar Network.dyn_peer[358] 	lookupTimeSig:mean 	1.85
scalar Network.dyn_peer[358] 	lookupStabilitySig:mean 	0.67277002241462
scalar Network.dyn_peer[358] 	lookupHopsSig:mean 	17.75
scalar Network.dyn_peer[359] 	lookupTimeSig:mean 	1.7875
scalar Network.dyn_peer[359] 	lookupStabilitySig:mean 	0.81642641202779
scalar Network.dyn_peer[359] 	lookupHopsSig:mean 	17
scalar Network.dyn_peer[360] 	lookupTimeSig:mean 	1.4285714285714
scalar Network.dyn_peer[360] 	lookupStabilitySig:mean 	0.70372099988163
scalar Network.dyn_peer[360] 	lookupHopsSig:mean 	13.428571428571
scalar Network.dyn_peer[361] 	lookupTimeSig:mean 	1.125
scalar Network.dyn_peer[361] 	lookupStabilitySig:mean 	0.45575221255422
scalar Network.dyn_peer[361] 	lookupHopsSig:mean 	10.5
scalar Network.dyn_peer[362] 	lookupTimeSig:mean 	3.1666666666667
scalar Network.dyn_peer[362] 	lookupStabilitySig:mean 	0.57113602757454
scalar Network.dyn_peer[362] 	lookupHopsSig:mean 	31
scalar Network.dyn_peer[363] 	lookupTimeSig:mean 	1.54
scalar Network.dyn_peer[363] 	lookupStabilitySig:mean 	0.63863858245313
scalar Network.dyn_peer[363] 	lookupHopsSig:mean 	14.6
scalar Network.dyn_peer[364] 	lookupTimeSig:mean 	2.05
scalar Network.dyn_peer[364] 	lookupStabilitySig:mean 	0.83101845462807
scalar Network.dyn_peer[364] 	lookupHopsSig:mean 	19.625
scalar Network.dyn_peer[365] 	lookupTimeSig:mean 	1.9888888888889
scalar Network.dyn_peer[365] 	lookupStabilitySig:mean 	0.85153093602922
scalar Network.dyn_peer[365] 	lookupHopsSig:mean 	19
scalar Network.dyn_peer[366] 	lookupTimeSig:mean 	1.7125
scalar Network.dyn_peer[366] 	lookupStabilitySig:mean 	0.81766127655283
scalar Network.dyn_peer[366] 	lookupHopsSig:mean 	16.25
scalar Network.dyn_peer[367] 	lookupTimeSig:mean 	1.075
scalar Network.dyn_peer[367] 	lookupStabilitySig:mean 	0.60477816127241
scalar Network.dyn_peer[367] 	lookupHopsSig:mean 	10
scalar Network.dyn_peer[368] 	lookupTimeSig:mean 	1.7
scalar Network.dyn_peer[368] 	lookupStabilitySig:mean 	0.842250761576
scalar Network.dyn_peer[368] 	lookupHopsSig:mean 	16.125
scalar Network.dyn_peer[369] 	lookupTimeSig:mean 	2.2
scalar Network.dyn_peer[369] 	lookupStabilitySig:mean 	0.83847202742472
scalar Network.dyn_peer[369] 	lookupHopsSig:mean 	21.2
scalar Network.dyn_peer[370] 	lookupTimeSig:mean 	2.9
scalar Network.dyn_peer[370] 	lookupStabilitySig:mean 	0.7013341858983
scalar Network.dyn_peer[370] 	lookupHopsSig:mean 	28.5
scalar Network.dyn_peer[371] 	lookupTimeSig:mean 	1.3333333333333
scalar Network.dyn_peer[371] 	lookupStabilitySig:mean 	0.8770765545778
scalar Network.dyn_peer[371] 	lookupHopsSig:mean 	12.416666666667
scalar Network.dyn_peer[372] 	lookupTimeSig:mean 	1.7333333333333
scalar Network.dyn_peer[372] 	lookupStabilitySig:mean 	0.60588147987922
scalar Network.dyn_peer[372] 	lookupHopsSig:mean 	16.666666666667
scalar Network.dyn_peer[373] 	lookupTimeSig:mean 	2.5142857142857
scalar Network.dyn_peer[373] 	lookupStabilitySig:mean 	0.94958987512759
scalar Network.dyn_peer[373] 	lookupHopsSig:mean 	24.285714285714
scalar Network.dyn_peer[374] 	lookupTimeSig:mean 	3.15
scalar Network.dyn_peer[374] 	lookupStabilitySig:mean 	0.76199094206095
scalar Network.dyn_peer[374] 	lookupHopsSig:mean 	31
scalar Network.dyn_peer[375] 	lookupTimeSig:mean 	3.5333333333333
scalar Network.dyn_peer[375] 	lookupStabilitySig:mean 	0.9013468666623
scalar Network.dyn_peer[375] 	lookupHopsSig:mean 	34.666666666667
scalar Network.dyn_peer[376] 	lookupTimeSig:mean 	3.3666666666667
scalar Network.dyn_peer[376] 	lookupStabilitySig:mean 	0.7720754618446
scalar Network.dyn_peer[376] 	lookupHopsSig:mean 	33
scalar Network.dyn_peer[377] 	lookupTimeSig:mean 	3.225
scalar Network.dyn_peer[377] 	lookupStabilitySig:mean 	0.7158061969094
scalar Network.dyn_peer[377] 	lookupHopsSig:mean 	31.5
scalar Network.dyn_peer[378] 	lookupTimeSig:mean 	4.85
scalar Network.dyn_peer[378] 	lookupStabilitySig:mean 	0.69322942942381
scalar Network.dyn_peer[378] 	lookupHopsSig:mean 	48
scalar Network.dyn_peer[379] 	lookupTimeSig:mean 	1.9
scalar Network.dyn_peer[379] 	lookupStabilitySig:mean 	0.94260035576299
scalar Network.dyn_peer[379] 	lookupHopsSig:mean 	18.1
scalar Network.dyn_peer[380] 	lookupTimeSig:mean 	2.9375
scalar Network.dyn_peer[380] 	lookupStabilitySig:mean 	0.94279653066769
scalar Network.dyn_peer[380] 	lookupHopsSig:mean 	28.5
scalar Network.dyn_peer[381] 	lookupTimeSig:mean 	1.6416666666667
scalar Network.dyn_peer[381] 	lookupStabilitySig:mean 	0.80773867247626
scalar Network.dyn_peer[381] 	lookupHopsSig:mean 	15.5
scalar Network.dyn_peer[382] 	lookupTimeSig:mean 	3.825
scalar Network.dyn_peer[382] 	lookupStabilitySig:mean 	0.55587098561227
scalar Network.dyn_peer[382] 	lookupHopsSig:mean 	37.5
scalar Network.dyn_peer[383] 	lookupTimeSig:mean 	2.3
scalar Network.dyn_peer[383] 	lookupStabilitySig:mean 	0.68067272783568
scalar Network.dyn_peer[383] 	lookupHopsSig:mean 	22.166666666667
scalar Network.dyn_peer[384] 	lookupTimeSig:mean 	3.8666666666667
scalar Network.dyn_peer[384] 	lookupStabilitySig:mean 	0.42965305844943
scalar Network.dyn_peer[384] 	lookupHopsSig:mean 	38
scalar Network.dyn_peer[385] 	lookupTimeSig:mean 	3.625
scalar Network.dyn_peer[385] 	lookupStabilitySig:mean 	0.81077745556831
scalar Network.dyn_peer[385] 	lookupHopsSig:mean 	35.5
scalar Network.dyn_peer[386] 	lookupTimeSig:mean 	2.0875
scalar Network.dyn_peer[386] 	lookupStabilitySig:mean 	0.92413640359882
scalar Network.dyn_peer[386] 	lookupHopsSig:mean 	20
scalar Network.dyn_peer[387] 	lookupTimeSig:mean 	3.6
scalar Network.dyn_peer[387] 	lookupStabilitySig:mean 	0.20649293065071
scalar Network.dyn_peer[387] 	lookupHopsSig:mean 	35.5
scalar Network.dyn_peer[388] 	lookupTimeSig:mean 	3.0875
scalar Network.dyn_peer[388] 	lookupStabilitySig:mean 	0.93818667670712
scalar Network.dyn_peer[388] 	lookupHopsSig:mean 	30
scalar Network.dyn_peer[389] 	lookupTimeSig:mean 	1.7454545454545
scalar Network.dyn_peer[389] 	lookupStabilitySig:mean 	0.87444624364037
scalar Network.dyn_peer[389] 	lookupHopsSig:mean 	16.545454545455
scalar Network.dyn_peer[390] 	lookupTimeSig:mean 	2.18
scalar Network.dyn_peer[390] 	lookupStabilitySig:mean 	0.85822580941021
scalar Network.dyn_peer[390] 	lookupHopsSig:mean 	21
scalar Network.dyn_peer[391] 	lookupTimeSig:mean 	1.725
scalar Network.dyn_peer[391] 	lookupStabilitySig:mean 	0.54981990344822
scalar Network.dyn_peer[391] 	lookupHopsSig:mean 	16.5
scalar Network.dyn_peer[392] 	lookupTimeSig:mean 	1.74
scalar Network.dyn_peer[392] 	lookupStabilitySig:mean 	0.9425251687256
scalar Network.dyn_peer[392] 	lookupHopsSig:mean 	16.466666666667
scalar Network.dyn_peer[393] 	lookupTimeSig:mean 	2
scalar Network.dyn_peer[393] 	lookupStabilitySig:mean 	0.70268931873143
scalar Network.dyn_peer[393] 	lookupHopsSig:mean 	19.2
scalar Network.dyn_peer[394] 	lookupTimeSig:mean 	1.46
scalar Network.dyn_peer[394] 	lookupStabilitySig:mean 	0.92033148277551
scalar Network.dyn_peer[394] 	lookupHopsSig:mean 	13.7
scalar Network.dyn_peer[395] 	lookupTimeSig:mean 	2.2857142857143
scalar Network.dyn_peer[395] 	lookupStabilitySig:mean 	0.86818684823811
scalar Network.dyn_peer[395] 	lookupHopsSig:mean 	22
scalar Network.dyn_peer[396] 	lookupTimeSig:mean 	2.0285714285714
scalar Network.dyn_peer[396] 	lookupStabilitySig:mean 	0.7394829839468
scalar Network.dyn_peer[396] 	lookupHopsSig:mean 	19.428571428571
scalar Network.dyn_peer[397] 	lookupTimeSig:mean 	1.8
scalar Network.dyn_peer[397] 	lookupStabilitySig:mean 	0.55046064313501
scalar Network.dyn_peer[397] 	lookupHopsSig:mean 	17.25
scalar Network.dyn_peer[398] 	lookupTimeSig:mean 	2.5
scalar Network.dyn_peer[398] 	lookupStabilitySig:mean 	0.92122622616589
scalar Network.dyn_peer[398] 	lookupHopsSig:mean 	24.2
scalar Network.dyn_peer[399] 	lookupTimeSig:mean 	1.77
scalar Network.dyn_peer[399] 	lookupStabilitySig:mean 	0.94899646807462
scalar Network.dyn_peer[399] 	lookupHopsSig:mean 	16.8
scalar Network.dyn_peer[400] 	lookupTimeSig:mean 	2.05
scalar Network.dyn_peer[400] 	lookupStabilitySig:mean 	0.50892857275903
scalar Network.dyn_peer[400] 	lookupHopsSig:mean 	19.75
scalar Network.dyn_peer[401] 	lookupTimeSig:mean 	1.88
scalar Network.dyn_peer[401] 	lookupStabilitySig:mean 	0.64952347017825
scalar Network.dyn_peer[401] 	lookupHopsSig:mean 	18
scalar Network.dyn_peer[402] 	lookupTimeSig:mean 	1.5785714285714
scalar Network.dyn_peer[402] 	lookupStabilitySig:mean 	0.93191819232223
scalar Network.dyn_peer[402] 	lookupHopsSig:mean 	14.857142857143
scalar Network.dyn_peer[403] 	lookupTimeSig:mean 	1.7363636363636
scalar Network.dyn_peer[403] 	lookupStabilitySig:mean 	0.95065607168627
scalar Network.dyn_peer[403] 	lookupHopsSig:mean 	16.454545454545
scalar Network.dyn_peer[404] 	lookupTimeSig:mean 	1.8
scalar Network.dyn_peer[404] 	lookupStabilitySig:mean 	0.60474805645645
scalar Network.dyn_peer[404] 	lookupHopsSig:mean 	17.2
scalar Network.dyn_peer[405] 	lookupTimeSig:mean 	3.8
scalar Network.dyn_peer[405] 	lookupStabilitySig:mean 	0.75731970276684
scalar Network.dyn_peer[405] 	lookupHopsSig:mean 	37.25
scalar Network.dyn_peer[406] 	lookupTimeSig:mean 	1.2833333333333
scalar Network.dyn_peer[406] 	lookupStabilitySig:mean 	0.65379294473678
scalar Network.dyn_peer[406] 	lookupHopsSig:mean 	12
scalar Network.dyn_peer[407] 	lookupTimeSig:mean 	1.975
scalar Network.dyn_peer[407] 	lookupStabilitySig:mean 	0.90514336639899
scalar Network.dyn_peer[407] 	lookupHopsSig:mean 	18.875
scalar Network.dyn_peer[408] 	lookupTimeSig:mean 	2
scalar Network.dyn_peer[408] 	lookupStabilitySig:mean 	0.87976102530956
scalar Network.dyn_peer[408] 	lookupHopsSig:mean 	19.2
scalar Network.dyn_peer[409] 	lookupTimeSig:mean 	2
scalar Network.dyn_peer[409] 	lookupStabilitySig:mean 	0.83082297351211
scalar Network.dyn_peer[409] 	lookupHopsSig:mean 	19.125
scalar Network.dyn_peer[410] 	lookupTimeSig:mean 	1.8571428571429
scalar Network.dyn_peer[410] 	lookupStabilitySig:mean 	0.90874584072403
scalar Network.dyn_peer[410] 	lookupHopsSig:mean 	17.714285714286
scalar Network.dyn_peer[411] 	lookupTimeSig:mean 	2.08
scalar Network.dyn_peer[411] 	lookupStabilitySig:mean 	0.77042110543698
scalar Network.dyn_peer[411] 	lookupHopsSig:mean 	20
scalar Network.dyn_peer[412] 	lookupTimeSig:mean 	1.3777777777778
scalar Network.dyn_peer[412] 	lookupStabilitySig:mean 	0.86162921651784
scalar Network.dyn_peer[412] 	lookupHopsSig:mean 	12.888888888889
scalar Network.dyn_peer[413] 	lookupTimeSig:mean 	2.475
scalar Network.dyn_peer[413] 	lookupStabilitySig:mean 	0.88647691137157
scalar Network.dyn_peer[413] 	lookupHopsSig:mean 	24
scalar Network.dyn_peer[414] 	lookupTimeSig:mean 	1.95
scalar Network.dyn_peer[414] 	lookupStabilitySig:mean 	0.62619899213314
scalar Network.dyn_peer[414] 	lookupHopsSig:mean 	18.75
scalar Network.dyn_peer[415] 	lookupTimeSig:mean 	2.2
scalar Network.dyn_peer[415] 	lookupStabilitySig:mean 	0.36682796478271
scalar Network.dyn_peer[415] 	lookupHopsSig:mean 	21.333333333333
scalar Network.dyn_peer[416] 	lookupTimeSig:mean 	1.98
scalar Network.dyn_peer[416] 	lookupStabilitySig:mean 	0.80201316326857
scalar Network.dyn_peer[416] 	lookupHopsSig:mean 	19
scalar Network.dyn_peer[417] 	lookupTimeSig:mean 	1.7
scalar Network.dyn_peer[417] 	lookupStabilitySig:mean 	0.88131949718809
scalar Network.dyn_peer[417] 	lookupHopsSig:mean 	16.125
scalar Network.dyn_peer[418] 	lookupTimeSig:mean 	1.85
scalar Network.dyn_peer[418] 	lookupStabilitySig:mean 	0.84560187316189
scalar Network.dyn_peer[418] 	lookupHopsSig:mean 	17.583333333333
scalar Network.dyn_peer[419] 	lookupTimeSig:mean 	2.9333333333333
scalar Network.dyn_peer[419] 	lookupStabilitySig:mean 	0.86610105633736
scalar Network.dyn_peer[419] 	lookupHopsSig:mean 	28.666666666667
scalar Network.dyn_peer[420] 	lookupTimeSig:mean 	1.95
scalar Network.dyn_peer[420] 	lookupStabilitySig:mean 	0.49017857946455
scalar Network.dyn_peer[420] 	lookupHopsSig:mean 	18.75
scalar Network.dyn_peer[421] 	lookupTimeSig:mean 	1.8142857142857
scalar Network.dyn_peer[421] 	lookupStabilitySig:mean 	0.89273040169584
scalar Network.dyn_peer[421] 	lookupHopsSig:mean 	17.285714285714
scalar Network.dyn_peer[422] 	lookupTimeSig:mean 	1.875
scalar Network.dyn_peer[422] 	lookupStabilitySig:mean 	0.88608058984391
scalar Network.dyn_peer[422] 	lookupHopsSig:mean 	17.875
[...]
scalar Network.dyn_peer[895] 	lookupHopsSig:mean 	15
scalar Network.dyn_peer[896] 	lookupTimeSig:mean 	3.0666666666667
scalar Network.dyn_peer[896] 	lookupStabilitySig:mean 	0.80893608431021
scalar Network.dyn_peer[896] 	lookupHopsSig:mean 	30
scalar Network.dyn_peer[897] 	lookupTimeSig:mean 	1.1333333333333
scalar Network.dyn_peer[897] 	lookupStabilitySig:mean 	0.55461761107047
scalar Network.dyn_peer[897] 	lookupHopsSig:mean 	10.666666666667
scalar Network.dyn_peer[898] 	lookupTimeSig:mean 	1.7
scalar Network.dyn_peer[898] 	lookupStabilitySig:mean 	0.74232119197647
scalar Network.dyn_peer[898] 	lookupHopsSig:mean 	16.166666666667
scalar Network.dyn_peer[899] 	lookupTimeSig:mean 	2.4
scalar Network.dyn_peer[899] 	lookupStabilitySig:mean 	0.67646476998925
scalar Network.dyn_peer[899] 	lookupHopsSig:mean 	23.333333333333
scalar Network.dyn_peer[900] 	lookupTimeSig:mean 	2.2375
scalar Network.dyn_peer[900] 	lookupStabilitySig:mean 	0.93266440625302
scalar Network.dyn_peer[900] 	lookupHopsSig:mean 	21.5
scalar Network.dyn_peer[901] 	lookupTimeSig:mean 	1.6555555555556
scalar Network.dyn_peer[901] 	lookupStabilitySig:mean 	0.82382022392833
scalar Network.dyn_peer[901] 	lookupHopsSig:mean 	15.666666666667
scalar Network.dyn_peer[902] 	lookupTimeSig:mean 	1.6857142857143
scalar Network.dyn_peer[902] 	lookupStabilitySig:mean 	0.90870808064938
scalar Network.dyn_peer[902] 	lookupHopsSig:mean 	16
scalar Network.dyn_peer[903] 	lookupTimeSig:mean 	1.8888888888889
scalar Network.dyn_peer[903] 	lookupStabilitySig:mean 	0.95044224750664
scalar Network.dyn_peer[903] 	lookupHopsSig:mean 	18
scalar Network.dyn_peer[904] 	lookupTimeSig:mean 	1.425
scalar Network.dyn_peer[904] 	lookupStabilitySig:mean 	0.62608248926699
scalar Network.dyn_peer[904] 	lookupHopsSig:mean 	13.5
scalar Network.dyn_peer[905] 	lookupTimeSig:mean 	1.6285714285714
scalar Network.dyn_peer[905] 	lookupStabilitySig:mean 	0.79192779013621
scalar Network.dyn_peer[905] 	lookupHopsSig:mean 	15.428571428571
scalar Network.dyn_peer[906] 	lookupTimeSig:mean 	2.3
scalar Network.dyn_peer[906] 	lookupStabilitySig:mean 	0.91689395892899
scalar Network.dyn_peer[906] 	lookupHopsSig:mean 	22.125
scalar Network.dyn_peer[907] 	lookupTimeSig:mean 	1.3125
scalar Network.dyn_peer[907] 	lookupStabilitySig:mean 	0.86164987104712
scalar Network.dyn_peer[907] 	lookupHopsSig:mean 	12.25
scalar Network.dyn_peer[908] 	lookupTimeSig:mean 	1.425
scalar Network.dyn_peer[908] 	lookupStabilitySig:mean 	0.81995176058263
scalar Network.dyn_peer[908] 	lookupHopsSig:mean 	13.5
scalar Network.dyn_peer[909] 	lookupTimeSig:mean 	1.15
scalar Network.dyn_peer[909] 	lookupStabilitySig:mean 	0.75478297099471
scalar Network.dyn_peer[909] 	lookupHopsSig:mean 	10.666666666667
scalar Network.dyn_peer[910] 	lookupTimeSig:mean 	2.5166666666667
scalar Network.dyn_peer[910] 	lookupStabilitySig:mean 	0.91256808365385
scalar Network.dyn_peer[910] 	lookupHopsSig:mean 	24.333333333333
scalar Network.dyn_peer[911] 	lookupTimeSig:mean 	1.4
scalar Network.dyn_peer[911] 	lookupStabilitySig:mean 	0.43409091234207
scalar Network.dyn_peer[911] 	lookupHopsSig:mean 	13.5
scalar Network.dyn_peer[912] 	lookupTimeSig:mean 	1.3866666666667
scalar Network.dyn_peer[912] 	lookupStabilitySig:mean 	0.96903502505738
scalar Network.dyn_peer[912] 	lookupHopsSig:mean 	12.933333333333
scalar Network.dyn_peer[913] 	lookupTimeSig:mean 	2.25
scalar Network.dyn_peer[913] 	lookupStabilitySig:mean 	0.90781573904678
scalar Network.dyn_peer[913] 	lookupHopsSig:mean 	21.666666666667
scalar Network.dyn_peer[914] 	lookupTimeSig:mean 	2.1857142857143
scalar Network.dyn_peer[914] 	lookupStabilitySig:mean 	0.9421524845862
scalar Network.dyn_peer[914] 	lookupHopsSig:mean 	21
scalar Network.dyn_peer[915] 	lookupTimeSig:mean 	2.0777777777778
scalar Network.dyn_peer[915] 	lookupStabilitySig:mean 	0.9477063746502
scalar Network.dyn_peer[915] 	lookupHopsSig:mean 	19.888888888889
scalar Network.dyn_peer[916] 	lookupTimeSig:mean 	2.3
scalar Network.dyn_peer[916] 	lookupStabilitySig:mean 	0.69188169389963
scalar Network.dyn_peer[916] 	lookupHopsSig:mean 	22.333333333333
scalar Network.dyn_peer[917] 	lookupTimeSig:mean 	1.8625
scalar Network.dyn_peer[917] 	lookupStabilitySig:mean 	0.9479426703183
scalar Network.dyn_peer[917] 	lookupHopsSig:mean 	17.75
scalar Network.dyn_peer[918] 	lookupTimeSig:mean 	1.4166666666667
scalar Network.dyn_peer[918] 	lookupStabilitySig:mean 	0.78784932599713
scalar Network.dyn_peer[918] 	lookupHopsSig:mean 	13.333333333333
scalar Network.dyn_peer[919] 	lookupTimeSig:mean 	1.8
scalar Network.dyn_peer[919] 	lookupStabilitySig:mean 	0.93275146046653
scalar Network.dyn_peer[919] 	lookupHopsSig:mean 	17.125
scalar Network.dyn_peer[920] 	lookupTimeSig:mean 	2.2166666666667
scalar Network.dyn_peer[920] 	lookupStabilitySig:mean 	0.96051632178326
scalar Network.dyn_peer[920] 	lookupHopsSig:mean 	21.25
scalar Network.dyn_peer[921] 	lookupTimeSig:mean 	1.8714285714286
scalar Network.dyn_peer[921] 	lookupStabilitySig:mean 	0.85765464816775
scalar Network.dyn_peer[921] 	lookupHopsSig:mean 	17.857142857143
scalar Network.dyn_peer[922] 	lookupTimeSig:mean 	1.625
scalar Network.dyn_peer[922] 	lookupStabilitySig:mean 	0.89865956734866
scalar Network.dyn_peer[922] 	lookupHopsSig:mean 	15.375
scalar Network.dyn_peer[923] 	lookupTimeSig:mean 	1.5363636363636
scalar Network.dyn_peer[923] 	lookupStabilitySig:mean 	0.91198693897406
scalar Network.dyn_peer[923] 	lookupHopsSig:mean 	14.454545454545
scalar Network.dyn_peer[924] 	lookupTimeSig:mean 	1.7
scalar Network.dyn_peer[924] 	lookupStabilitySig:mean 	0.78814023391654
scalar Network.dyn_peer[924] 	lookupHopsSig:mean 	16.166666666667
scalar Network.dyn_peer[925] 	lookupTimeSig:mean 	2.0333333333333
scalar Network.dyn_peer[925] 	lookupStabilitySig:mean 	0.5329931974411
scalar Network.dyn_peer[925] 	lookupHopsSig:mean 	19.666666666667
scalar Network.dyn_peer[926] 	lookupTimeSig:mean 	1.4
scalar Network.dyn_peer[926] 	lookupStabilitySig:mean 	0.6311766008536
scalar Network.dyn_peer[926] 	lookupHopsSig:mean 	13.333333333333
scalar Network.dyn_peer[927] 	lookupTimeSig:mean 	2.075
scalar Network.dyn_peer[927] 	lookupStabilitySig:mean 	0.83618307113647
scalar Network.dyn_peer[927] 	lookupHopsSig:mean 	20
scalar Network.dyn_peer[928] 	lookupTimeSig:mean 	2.2
scalar Network.dyn_peer[928] 	lookupStabilitySig:mean 	0.76680085249245
scalar Network.dyn_peer[928] 	lookupHopsSig:mean 	21.166666666667
scalar Network.dyn_peer[929] 	lookupTimeSig:mean 	2.25
scalar Network.dyn_peer[929] 	lookupStabilitySig:mean 	0.94948462827597
scalar Network.dyn_peer[929] 	lookupHopsSig:mean 	21.625
scalar Network.dyn_peer[930] 	lookupTimeSig:mean 	1.575
scalar Network.dyn_peer[930] 	lookupStabilitySig:mean 	0.94174202473368
scalar Network.dyn_peer[930] 	lookupHopsSig:mean 	14.875
scalar Network.dyn_peer[931] 	lookupTimeSig:mean 	1.44
scalar Network.dyn_peer[931] 	lookupStabilitySig:mean 	0.92175739258528
scalar Network.dyn_peer[931] 	lookupHopsSig:mean 	13.6
scalar Network.dyn_peer[932] 	lookupTimeSig:mean 	2.3
scalar Network.dyn_peer[932] 	lookupStabilitySig:mean 	0.73746528849006
scalar Network.dyn_peer[932] 	lookupHopsSig:mean 	22.25
scalar Network.dyn_peer[933] 	lookupTimeSig:mean 	1.66
scalar Network.dyn_peer[933] 	lookupStabilitySig:mean 	0.79467997588217
scalar Network.dyn_peer[933] 	lookupHopsSig:mean 	15.8
scalar Network.dyn_peer[934] 	lookupTimeSig:mean 	1.92
scalar Network.dyn_peer[934] 	lookupStabilitySig:mean 	0.90072531662881
scalar Network.dyn_peer[934] 	lookupHopsSig:mean 	18.4
scalar Network.dyn_peer[935] 	lookupTimeSig:mean 	1.425
scalar Network.dyn_peer[935] 	lookupStabilitySig:mean 	0.85023747663945
scalar Network.dyn_peer[935] 	lookupHopsSig:mean 	13.375
scalar Network.dyn_peer[936] 	lookupTimeSig:mean 	1.85
scalar Network.dyn_peer[936] 	lookupStabilitySig:mean 	0.55882351845503
scalar Network.dyn_peer[936] 	lookupHopsSig:mean 	18
scalar Network.dyn_peer[937] 	lookupTimeSig:mean 	3.55
scalar Network.dyn_peer[937] 	lookupStabilitySig:mean 	0.81024169921875
scalar Network.dyn_peer[937] 	lookupHopsSig:mean 	35
scalar Network.dyn_peer[938] 	lookupTimeSig:mean 	2.5
scalar Network.dyn_peer[938] 	lookupStabilitySig:mean 	0.67356885224581
scalar Network.dyn_peer[938] 	lookupHopsSig:mean 	24.333333333333
scalar Network.dyn_peer[939] 	lookupTimeSig:mean 	2.65
scalar Network.dyn_peer[939] 	lookupStabilitySig:mean 	0.82321725226939
scalar Network.dyn_peer[939] 	lookupHopsSig:mean 	25.75
scalar Network.dyn_peer[940] 	lookupTimeSig:mean 	2.4333333333333
scalar Network.dyn_peer[940] 	lookupStabilitySig:mean 	0.85850429659088
scalar Network.dyn_peer[940] 	lookupHopsSig:mean 	23.666666666667
scalar Network.dyn_peer[941] 	lookupTimeSig:mean 	3.1666666666667
scalar Network.dyn_peer[941] 	lookupStabilitySig:mean 	0.87215179763734
scalar Network.dyn_peer[941] 	lookupHopsSig:mean 	31
scalar Network.dyn_peer[942] 	lookupTimeSig:mean 	1.7333333333333
scalar Network.dyn_peer[942] 	lookupStabilitySig:mean 	0.58104131867488
scalar Network.dyn_peer[942] 	lookupHopsSig:mean 	16.666666666667
scalar Network.dyn_peer[943] 	lookupTimeSig:mean 	1.59
scalar Network.dyn_peer[943] 	lookupStabilitySig:mean 	0.87635394847021
scalar Network.dyn_peer[943] 	lookupHopsSig:mean 	15
scalar Network.dyn_peer[944] 	lookupTimeSig:mean 	1.575
scalar Network.dyn_peer[944] 	lookupStabilitySig:mean 	0.7734937723726
scalar Network.dyn_peer[944] 	lookupHopsSig:mean 	15
scalar Network.dyn_peer[945] 	lookupTimeSig:mean 	4
scalar Network.dyn_peer[945] 	lookupStabilitySig:mean 	0.87112375022843
scalar Network.dyn_peer[945] 	lookupHopsSig:mean 	39.25
scalar Network.dyn_peer[946] 	lookupTimeSig:mean 	1.6222222222222
scalar Network.dyn_peer[946] 	lookupStabilitySig:mean 	0.95346707824825
scalar Network.dyn_peer[946] 	lookupHopsSig:mean 	15.333333333333
scalar Network.dyn_peer[947] 	lookupTimeSig:mean 	1.7555555555556
scalar Network.dyn_peer[947] 	lookupStabilitySig:mean 	0.94970607084947
scalar Network.dyn_peer[947] 	lookupHopsSig:mean 	16.666666666667
scalar Network.dyn_peer[948] 	lookupTimeSig:mean 	2
scalar Network.dyn_peer[948] 	lookupStabilitySig:mean 	0.65858606000741
scalar Network.dyn_peer[948] 	lookupHopsSig:mean 	19.333333333333
scalar Network.dyn_peer[949] 	lookupTimeSig:mean 	2.22
scalar Network.dyn_peer[949] 	lookupStabilitySig:mean 	0.92827703449875
scalar Network.dyn_peer[949] 	lookupHopsSig:mean 	21.4
scalar Network.dyn_peer[950] 	lookupTimeSig:mean 	1.85
scalar Network.dyn_peer[950] 	lookupStabilitySig:mean 	0.74208656139672
scalar Network.dyn_peer[950] 	lookupHopsSig:mean 	17.75
scalar Network.dyn_peer[951] 	lookupTimeSig:mean 	2.8
scalar Network.dyn_peer[951] 	lookupStabilitySig:mean 	0.79572973400354
scalar Network.dyn_peer[951] 	lookupHopsSig:mean 	27.333333333333
scalar Network.dyn_peer[952] 	lookupTimeSig:mean 	2.2545454545455
scalar Network.dyn_peer[952] 	lookupStabilitySig:mean 	0.95534286681901
scalar Network.dyn_peer[952] 	lookupHopsSig:mean 	21.636363636364
scalar Network.dyn_peer[953] 	lookupTimeSig:mean 	1.3
scalar Network.dyn_peer[953] 	lookupStabilitySig:mean 	0.73316513001919
scalar Network.dyn_peer[953] 	lookupHopsSig:mean 	12.25
scalar Network.dyn_peer[954] 	lookupTimeSig:mean 	1.8916666666667
scalar Network.dyn_peer[954] 	lookupStabilitySig:mean 	0.97418172529433
scalar Network.dyn_peer[954] 	lookupHopsSig:mean 	18
scalar Network.dyn_peer[955] 	lookupTimeSig:mean 	1.9090909090909
scalar Network.dyn_peer[955] 	lookupStabilitySig:mean 	0.96256598871498
scalar Network.dyn_peer[955] 	lookupHopsSig:mean 	18.181818181818
scalar Network.dyn_peer[956] 	lookupTimeSig:mean 	1.6142857142857
scalar Network.dyn_peer[956] 	lookupStabilitySig:mean 	0.89599071070552
scalar Network.dyn_peer[956] 	lookupHopsSig:mean 	15.285714285714
scalar Network.dyn_peer[957] 	lookupTimeSig:mean 	2.64
scalar Network.dyn_peer[957] 	lookupStabilitySig:mean 	0.90615674182773
scalar Network.dyn_peer[957] 	lookupHopsSig:mean 	25.6
scalar Network.dyn_peer[958] 	lookupTimeSig:mean 	1.9461538461538
scalar Network.dyn_peer[958] 	lookupStabilitySig:mean 	0.96287672687322
scalar Network.dyn_peer[958] 	lookupHopsSig:mean 	18.538461538462
scalar Network.dyn_peer[959] 	lookupTimeSig:mean 	1.3454545454545
scalar Network.dyn_peer[959] 	lookupStabilitySig:mean 	0.96197141520679
scalar Network.dyn_peer[959] 	lookupHopsSig:mean 	12.545454545455
scalar Network.dyn_peer[960] 	lookupTimeSig:mean 	5.55
scalar Network.dyn_peer[960] 	lookupStabilitySig:mean 	0.81359767541289
scalar Network.dyn_peer[960] 	lookupHopsSig:mean 	55
scalar Network.dyn_peer[961] 	lookupTimeSig:mean 	1.975
scalar Network.dyn_peer[961] 	lookupStabilitySig:mean 	0.82016881392337
scalar Network.dyn_peer[961] 	lookupHopsSig:mean 	19
scalar Network.dyn_peer[962] 	lookupTimeSig:mean 	1.425
scalar Network.dyn_peer[962] 	lookupStabilitySig:mean 	0.71857031062245
scalar Network.dyn_peer[962] 	lookupHopsSig:mean 	13.5
scalar Network.dyn_peer[963] 	lookupTimeSig:mean 	1.69
scalar Network.dyn_peer[963] 	lookupStabilitySig:mean 	0.96113385369536
scalar Network.dyn_peer[963] 	lookupHopsSig:mean 	16
scalar Network.dyn_peer[964] 	lookupTimeSig:mean 	2.4076923076923
scalar Network.dyn_peer[964] 	lookupStabilitySig:mean 	0.96225268734046
scalar Network.dyn_peer[964] 	lookupHopsSig:mean 	23.153846153846
scalar Network.dyn_peer[965] 	lookupTimeSig:mean 	1.7142857142857
scalar Network.dyn_peer[965] 	lookupStabilitySig:mean 	0.91432197684688
scalar Network.dyn_peer[965] 	lookupHopsSig:mean 	16.285714285714
scalar Network.dyn_peer[966] 	lookupTimeSig:mean 	1.5571428571429
scalar Network.dyn_peer[966] 	lookupStabilitySig:mean 	0.95631975354627
scalar Network.dyn_peer[966] 	lookupHopsSig:mean 	14.642857142857
scalar Network.dyn_peer[967] 	lookupTimeSig:mean 	1.6444444444444
scalar Network.dyn_peer[967] 	lookupStabilitySig:mean 	0.9424838829501
scalar Network.dyn_peer[967] 	lookupHopsSig:mean 	15.555555555556
scalar Network.dyn_peer[968] 	lookupTimeSig:mean 	1.6
scalar Network.dyn_peer[968] 	lookupStabilitySig:mean 	0.89229913391173
scalar Network.dyn_peer[968] 	lookupHopsSig:mean 	15.1
scalar Network.dyn_peer[969] 	lookupTimeSig:mean 	1.7166666666667
scalar Network.dyn_peer[969] 	lookupStabilitySig:mean 	0.92450859525707
scalar Network.dyn_peer[969] 	lookupHopsSig:mean 	16.25
scalar Network.dyn_peer[970] 	lookupTimeSig:mean 	3.7666666666667
scalar Network.dyn_peer[970] 	lookupStabilitySig:mean 	0.80344749242067
scalar Network.dyn_peer[970] 	lookupHopsSig:mean 	37
scalar Network.dyn_peer[971] 	lookupTimeSig:mean 	2.8333333333333
scalar Network.dyn_peer[971] 	lookupStabilitySig:mean 	0.88700324979921
scalar Network.dyn_peer[971] 	lookupHopsSig:mean 	27.666666666667
scalar Network.dyn_peer[972] 	lookupTimeSig:mean 	0.86666666666667
scalar Network.dyn_peer[972] 	lookupStabilitySig:mean 	0.61965811252594
scalar Network.dyn_peer[972] 	lookupHopsSig:mean 	8
scalar Network.dyn_peer[973] 	lookupTimeSig:mean 	2.2181818181818
scalar Network.dyn_peer[973] 	lookupStabilitySig:mean 	0.96203437155451
scalar Network.dyn_peer[973] 	lookupHopsSig:mean 	21.272727272727
scalar Network.dyn_peer[974] 	lookupTimeSig:mean 	2.05
scalar Network.dyn_peer[974] 	lookupStabilitySig:mean 	0.94597198243719
scalar Network.dyn_peer[974] 	lookupHopsSig:mean 	19.625
scalar Network.dyn_peer[975] 	lookupTimeSig:mean 	1.35
scalar Network.dyn_peer[975] 	lookupStabilitySig:mean 	0.72097195498645
scalar Network.dyn_peer[975] 	lookupHopsSig:mean 	12.75
scalar Network.dyn_peer[976] 	lookupTimeSig:mean 	1.9714285714286
scalar Network.dyn_peer[976] 	lookupStabilitySig:mean 	0.92253902128765
scalar Network.dyn_peer[976] 	lookupHopsSig:mean 	18.857142857143
scalar Network.dyn_peer[977] 	lookupTimeSig:mean 	2.0428571428571
scalar Network.dyn_peer[977] 	lookupStabilitySig:mean 	0.94770267945049
scalar Network.dyn_peer[977] 	lookupHopsSig:mean 	19.571428571429
scalar Network.dyn_peer[978] 	lookupTimeSig:mean 	1.32
scalar Network.dyn_peer[978] 	lookupStabilitySig:mean 	0.7496215749532
scalar Network.dyn_peer[978] 	lookupHopsSig:mean 	12.4
scalar Network.dyn_peer[979] 	lookupTimeSig:mean 	1.8555555555556
scalar Network.dyn_peer[979] 	lookupStabilitySig:mean 	0.86988531197939
scalar Network.dyn_peer[979] 	lookupHopsSig:mean 	17.666666666667
scalar Network.dyn_peer[980] 	lookupTimeSig:mean 	1.7
scalar Network.dyn_peer[980] 	lookupStabilitySig:mean 	0.94427440387451
scalar Network.dyn_peer[980] 	lookupHopsSig:mean 	16.090909090909
scalar Network.dyn_peer[981] 	lookupTimeSig:mean 	0.35
scalar Network.dyn_peer[981] 	lookupStabilitySig:mean 	0.625
scalar Network.dyn_peer[981] 	lookupHopsSig:mean 	3
scalar Network.dyn_peer[982] 	lookupTimeSig:mean 	2.4666666666667
scalar Network.dyn_peer[982] 	lookupStabilitySig:mean 	0.61437260607878
scalar Network.dyn_peer[982] 	lookupHopsSig:mean 	24
scalar Network.dyn_peer[983] 	lookupTimeSig:mean 	1.8222222222222
scalar Network.dyn_peer[983] 	lookupStabilitySig:mean 	0.95498401299119
scalar Network.dyn_peer[983] 	lookupHopsSig:mean 	17.333333333333
scalar Network.dyn_peer[984] 	lookupTimeSig:mean 	1.9
scalar Network.dyn_peer[984] 	lookupStabilitySig:mean 	0.82790616648272
scalar Network.dyn_peer[984] 	lookupHopsSig:mean 	18.2
scalar Network.dyn_peer[985] 	lookupTimeSig:mean 	2.6
scalar Network.dyn_peer[985] 	lookupStabilitySig:mean 	0.54814188927412
scalar Network.dyn_peer[985] 	lookupHopsSig:mean 	25.5
scalar Network.dyn_peer[986] 	lookupTimeSig:mean 	1.2916666666667
scalar Network.dyn_peer[986] 	lookupStabilitySig:mean 	0.87251469861561
scalar Network.dyn_peer[986] 	lookupHopsSig:mean 	12
scalar Network.dyn_peer[987] 	lookupTimeSig:mean 	1.2
scalar Network.dyn_peer[987] 	lookupStabilitySig:mean 	0.86214511256133
scalar Network.dyn_peer[987] 	lookupHopsSig:mean 	11.142857142857
scalar Network.dyn_peer[988] 	lookupTimeSig:mean 	3.1666666666667
scalar Network.dyn_peer[988] 	lookupStabilitySig:mean 	0.86081307878097
scalar Network.dyn_peer[988] 	lookupHopsSig:mean 	31
scalar Network.dyn_peer[989] 	lookupTimeSig:mean 	1.3142857142857
scalar Network.dyn_peer[989] 	lookupStabilitySig:mean 	0.81058510492689
scalar Network.dyn_peer[989] 	lookupHopsSig:mean 	12.285714285714
scalar Network.dyn_peer[990] 	lookupTimeSig:mean 	2.0666666666667
scalar Network.dyn_peer[990] 	lookupStabilitySig:mean 	0.91951187886298
scalar Network.dyn_peer[990] 	lookupHopsSig:mean 	19.833333333333
scalar Network.dyn_peer[991] 	lookupTimeSig:mean 	1.725
scalar Network.dyn_peer[991] 	lookupStabilitySig:mean 	0.85799487191252
scalar Network.dyn_peer[991] 	lookupHopsSig:mean 	16.375
scalar Network.dyn_peer[992] 	lookupTimeSig:mean 	2.12
scalar Network.dyn_peer[992] 	lookupStabilitySig:mean 	0.78649774566293
scalar Network.dyn_peer[992] 	lookupHopsSig:mean 	20.4
scalar Network.dyn_peer[993] 	lookupTimeSig:mean 	2.125
scalar Network.dyn_peer[993] 	lookupStabilitySig:mean 	0.89126011822373
scalar Network.dyn_peer[993] 	lookupHopsSig:mean 	20.5
scalar Network.dyn_peer[994] 	lookupTimeSig:mean 	1.82
scalar Network.dyn_peer[994] 	lookupStabilitySig:mean 	0.78686214759946
scalar Network.dyn_peer[994] 	lookupHopsSig:mean 	17.4
scalar Network.dyn_peer[995] 	lookupTimeSig:mean 	2.07
scalar Network.dyn_peer[995] 	lookupStabilitySig:mean 	0.93575715404004
scalar Network.dyn_peer[995] 	lookupHopsSig:mean 	19.8
scalar Network.dyn_peer[996] 	lookupTimeSig:mean 	2.2
scalar Network.dyn_peer[996] 	lookupStabilitySig:mean 	0.89337178389542
scalar Network.dyn_peer[996] 	lookupHopsSig:mean 	21.25
scalar Network.dyn_peer[997] 	lookupTimeSig:mean 	1
scalar Network.dyn_peer[997] 	lookupStabilitySig:mean 	0.67810456454754
scalar Network.dyn_peer[997] 	lookupHopsSig:mean 	9.3333333333333
scalar Network.dyn_peer[998] 	lookupTimeSig:mean 	2.1333333333333
scalar Network.dyn_peer[998] 	lookupStabilitySig:mean 	0.56677401562532
scalar Network.dyn_peer[998] 	lookupHopsSig:mean 	20.666666666667
scalar Network.dyn_peer[999] 	lookupTimeSig:mean 	2.575
scalar Network.dyn_peer[999] 	lookupStabilitySig:mean 	0.85214784555137
scalar Network.dyn_peer[999] 	lookupHopsSig:mean 	25
scalar Network.churner 	inGoingSizeSig:mean 	498.91408591409
