version 2
run Stability2-323-20130526-00:55:27-26640
attr configname Stability2
attr datetime 20130526-00:55:27
attr experiment Stability2
attr inifile omnetpp.ini
attr iterationvars $0=1000
attr iterationvars2 "$0=1000, $repetition=23"
attr measurement $0=1000
attr network Network
attr processid 26640
attr repetition 23
attr replication #23
attr resultdir results
attr runnumber 323
attr seedset 323

scalar Network.dyn_peer[0] 	lookupTimeSig:mean 	1.2
scalar Network.dyn_peer[0] 	lookupStabilitySig:mean 	0.4243131056428
scalar Network.dyn_peer[0] 	lookupHopsSig:mean 	11.2
scalar Network.dyn_peer[1] 	lookupTimeSig:mean 	1.55
scalar Network.dyn_peer[1] 	lookupStabilitySig:mean 	0.46960763633251
scalar Network.dyn_peer[1] 	lookupHopsSig:mean 	14.75
scalar Network.dyn_peer[2] 	lookupTimeSig:mean 	1.0571428571429
scalar Network.dyn_peer[2] 	lookupStabilitySig:mean 	0.55118762063129
scalar Network.dyn_peer[2] 	lookupHopsSig:mean 	9.7142857142857
scalar Network.dyn_peer[3] 	lookupTimeSig:mean 	2.325
scalar Network.dyn_peer[3] 	lookupStabilitySig:mean 	0.44176562875509
scalar Network.dyn_peer[3] 	lookupHopsSig:mean 	22.5
scalar Network.dyn_peer[4] 	lookupTimeSig:mean 	1.9666666666667
scalar Network.dyn_peer[4] 	lookupStabilitySig:mean 	0.45971631507079
scalar Network.dyn_peer[4] 	lookupHopsSig:mean 	19
scalar Network.dyn_peer[5] 	lookupTimeSig:mean 	0.675
scalar Network.dyn_peer[5] 	lookupStabilitySig:mean 	0.45681818947196
scalar Network.dyn_peer[5] 	lookupHopsSig:mean 	6
scalar Network.dyn_peer[6] 	lookupTimeSig:mean 	2.325
scalar Network.dyn_peer[6] 	lookupStabilitySig:mean 	0.34785136766732
scalar Network.dyn_peer[6] 	lookupHopsSig:mean 	22.5
scalar Network.dyn_peer[7] 	lookupTimeSig:mean 	2
scalar Network.dyn_peer[7] 	lookupStabilitySig:mean 	0.62273266911507
scalar Network.dyn_peer[7] 	lookupHopsSig:mean 	19.333333333333
scalar Network.dyn_peer[8] 	lookupTimeSig:mean 	2.2428571428571
scalar Network.dyn_peer[8] 	lookupStabilitySig:mean 	0.70903582365385
scalar Network.dyn_peer[8] 	lookupHopsSig:mean 	21.571428571429
scalar Network.dyn_peer[9] 	lookupTimeSig:mean 	2.2777777777778
scalar Network.dyn_peer[9] 	lookupStabilitySig:mean 	0.7515889186826
scalar Network.dyn_peer[9] 	lookupHopsSig:mean 	21.888888888889
scalar Network.dyn_peer[10] 	lookupTimeSig:mean 	2.5333333333333
scalar Network.dyn_peer[10] 	lookupStabilitySig:mean 	0.25965856015682
scalar Network.dyn_peer[10] 	lookupHopsSig:mean 	24.666666666667
scalar Network.dyn_peer[11] 	lookupTimeSig:mean 	2.26
scalar Network.dyn_peer[11] 	lookupStabilitySig:mean 	0.58514652252197
scalar Network.dyn_peer[11] 	lookupHopsSig:mean 	21.8
scalar Network.dyn_peer[12] 	lookupTimeSig:mean 	1.3
scalar Network.dyn_peer[12] 	lookupStabilitySig:mean 	0.66119725846996
scalar Network.dyn_peer[12] 	lookupHopsSig:mean 	12.111111111111
scalar Network.dyn_peer[13] 	lookupTimeSig:mean 	1.5571428571429
scalar Network.dyn_peer[13] 	lookupStabilitySig:mean 	0.61768115631172
scalar Network.dyn_peer[13] 	lookupHopsSig:mean 	14.714285714286
scalar Network.dyn_peer[14] 	lookupTimeSig:mean 	2.1
scalar Network.dyn_peer[14] 	lookupStabilitySig:mean 	0.49999998509884
scalar Network.dyn_peer[14] 	lookupHopsSig:mean 	20.5
scalar Network.dyn_peer[15] 	lookupTimeSig:mean 	1.675
scalar Network.dyn_peer[15] 	lookupStabilitySig:mean 	0.52350229397416
scalar Network.dyn_peer[15] 	lookupHopsSig:mean 	16
scalar Network.dyn_peer[16] 	lookupTimeSig:mean 	2.3666666666667
scalar Network.dyn_peer[16] 	lookupStabilitySig:mean 	0.54028118091325
scalar Network.dyn_peer[16] 	lookupHopsSig:mean 	22.833333333333
scalar Network.dyn_peer[17] 	lookupTimeSig:mean 	1.8
scalar Network.dyn_peer[17] 	lookupStabilitySig:mean 	0.65862357926865
scalar Network.dyn_peer[17] 	lookupHopsSig:mean 	17.166666666667
scalar Network.dyn_peer[18] 	lookupTimeSig:mean 	2.425
scalar Network.dyn_peer[18] 	lookupStabilitySig:mean 	0.38142035529017
scalar Network.dyn_peer[18] 	lookupHopsSig:mean 	23.5
scalar Network.dyn_peer[19] 	lookupTimeSig:mean 	1.49
scalar Network.dyn_peer[19] 	lookupStabilitySig:mean 	0.77095531662926
scalar Network.dyn_peer[19] 	lookupHopsSig:mean 	14
scalar Network.dyn_peer[20] 	lookupTimeSig:mean 	2.65
scalar Network.dyn_peer[20] 	lookupStabilitySig:mean 	0.92351496522315
scalar Network.dyn_peer[20] 	lookupHopsSig:mean 	25.75
scalar Network.dyn_peer[21] 	lookupTimeSig:mean 	1.57
scalar Network.dyn_peer[21] 	lookupStabilitySig:mean 	0.74652406815439
scalar Network.dyn_peer[21] 	lookupHopsSig:mean 	14.8
scalar Network.dyn_peer[22] 	lookupTimeSig:mean 	1.4333333333333
scalar Network.dyn_peer[22] 	lookupStabilitySig:mean 	0.028990596532822
scalar Network.dyn_peer[22] 	lookupHopsSig:mean 	13.666666666667
scalar Network.dyn_peer[23] 	lookupTimeSig:mean 	2.2
scalar Network.dyn_peer[23] 	lookupStabilitySig:mean 	0.098546455303828
scalar Network.dyn_peer[23] 	lookupHopsSig:mean 	21.333333333333
scalar Network.dyn_peer[24] 	lookupTimeSig:mean 	2.8333333333333
scalar Network.dyn_peer[24] 	lookupStabilitySig:mean 	0.51384800300002
scalar Network.dyn_peer[24] 	lookupHopsSig:mean 	27.666666666667
scalar Network.dyn_peer[25] 	lookupTimeSig:mean 	2.225
scalar Network.dyn_peer[25] 	lookupStabilitySig:mean 	0.81805168371648
scalar Network.dyn_peer[25] 	lookupHopsSig:mean 	21.5
scalar Network.dyn_peer[26] 	lookupTimeSig:mean 	1.25
scalar Network.dyn_peer[26] 	lookupStabilitySig:mean 	0.36683502793312
scalar Network.dyn_peer[26] 	lookupHopsSig:mean 	11.75
scalar Network.dyn_peer[27] 	lookupTimeSig:mean 	2.125
scalar Network.dyn_peer[27] 	lookupStabilitySig:mean 	0.48457424901426
scalar Network.dyn_peer[27] 	lookupHopsSig:mean 	20.5
scalar Network.dyn_peer[28] 	lookupTimeSig:mean 	1.7666666666667
scalar Network.dyn_peer[28] 	lookupStabilitySig:mean 	0.53556314545373
scalar Network.dyn_peer[28] 	lookupHopsSig:mean 	16.833333333333
scalar Network.dyn_peer[29] 	lookupTimeSig:mean 	2.0333333333333
scalar Network.dyn_peer[29] 	lookupStabilitySig:mean 	0.72054650205084
scalar Network.dyn_peer[29] 	lookupHopsSig:mean 	19.444444444444
scalar Network.dyn_peer[30] 	lookupTimeSig:mean 	1.325
scalar Network.dyn_peer[30] 	lookupStabilitySig:mean 	0.55224468186498
scalar Network.dyn_peer[30] 	lookupHopsSig:mean 	12.5
scalar Network.dyn_peer[31] 	lookupTimeSig:mean 	1.7875
scalar Network.dyn_peer[31] 	lookupStabilitySig:mean 	0.6198928670492
scalar Network.dyn_peer[31] 	lookupHopsSig:mean 	17
scalar Network.dyn_peer[32] 	lookupTimeSig:mean 	2.24
scalar Network.dyn_peer[32] 	lookupStabilitySig:mean 	0.79517875760794
scalar Network.dyn_peer[32] 	lookupHopsSig:mean 	21.6
scalar Network.dyn_peer[33] 	lookupTimeSig:mean 	1.775
scalar Network.dyn_peer[33] 	lookupStabilitySig:mean 	0.24882456660271
scalar Network.dyn_peer[33] 	lookupHopsSig:mean 	17
scalar Network.dyn_peer[34] 	lookupTimeSig:mean 	1.5083333333333
scalar Network.dyn_peer[34] 	lookupStabilitySig:mean 	0.77659756992944
scalar Network.dyn_peer[34] 	lookupHopsSig:mean 	14.166666666667
scalar Network.dyn_peer[35] 	lookupTimeSig:mean 	1.6875
scalar Network.dyn_peer[35] 	lookupStabilitySig:mean 	0.72728707815986
scalar Network.dyn_peer[35] 	lookupHopsSig:mean 	16
scalar Network.dyn_peer[36] 	lookupTimeSig:mean 	1.98
scalar Network.dyn_peer[36] 	lookupStabilitySig:mean 	0.55561238229275
scalar Network.dyn_peer[36] 	lookupHopsSig:mean 	19
scalar Network.dyn_peer[37] 	lookupTimeSig:mean 	1.625
scalar Network.dyn_peer[37] 	lookupStabilitySig:mean 	0.28389054350555
scalar Network.dyn_peer[37] 	lookupHopsSig:mean 	15.5
scalar Network.dyn_peer[38] 	lookupTimeSig:mean 	1.85
scalar Network.dyn_peer[38] 	lookupStabilitySig:mean 	0.33652220014483
scalar Network.dyn_peer[38] 	lookupHopsSig:mean 	17.75
scalar Network.dyn_peer[39] 	lookupTimeSig:mean 	1.375
scalar Network.dyn_peer[39] 	lookupStabilitySig:mean 	0.78415306673075
scalar Network.dyn_peer[39] 	lookupHopsSig:mean 	12.833333333333
scalar Network.dyn_peer[40] 	lookupTimeSig:mean 	1.3833333333333
scalar Network.dyn_peer[40] 	lookupStabilitySig:mean 	0.76750955171883
scalar Network.dyn_peer[40] 	lookupHopsSig:mean 	13
scalar Network.dyn_peer[41] 	lookupTimeSig:mean 	1.7
scalar Network.dyn_peer[41] 	lookupStabilitySig:mean 	0.43417990356684
scalar Network.dyn_peer[41] 	lookupHopsSig:mean 	16.2
scalar Network.dyn_peer[42] 	lookupTimeSig:mean 	1.63
scalar Network.dyn_peer[42] 	lookupStabilitySig:mean 	0.77701267981902
scalar Network.dyn_peer[42] 	lookupHopsSig:mean 	15.4
scalar Network.dyn_peer[43] 	lookupTimeSig:mean 	3.1
scalar Network.dyn_peer[43] 	lookupStabilitySig:mean 	0.4331725416705
scalar Network.dyn_peer[43] 	lookupHopsSig:mean 	30.25
scalar Network.dyn_peer[44] 	lookupTimeSig:mean 	1.16
scalar Network.dyn_peer[44] 	lookupStabilitySig:mean 	0.48183556720614
scalar Network.dyn_peer[44] 	lookupHopsSig:mean 	10.8
scalar Network.dyn_peer[45] 	lookupTimeSig:mean 	1.6
scalar Network.dyn_peer[45] 	lookupStabilitySig:mean 	0.74711599871516
scalar Network.dyn_peer[45] 	lookupHopsSig:mean 	15.2
scalar Network.dyn_peer[46] 	lookupTimeSig:mean 	1.7
scalar Network.dyn_peer[46] 	lookupStabilitySig:mean 	0.77039234839718
scalar Network.dyn_peer[46] 	lookupHopsSig:mean 	16.090909090909
scalar Network.dyn_peer[47] 	lookupTimeSig:mean 	3.3666666666667
scalar Network.dyn_peer[47] 	lookupStabilitySig:mean 	0.75076677650213
scalar Network.dyn_peer[47] 	lookupHopsSig:mean 	33
scalar Network.dyn_peer[48] 	lookupTimeSig:mean 	1.5
scalar Network.dyn_peer[48] 	lookupStabilitySig:mean 	0.61189464852214
scalar Network.dyn_peer[48] 	lookupHopsSig:mean 	14.25
scalar Network.dyn_peer[49] 	lookupTimeSig:mean 	1.37
scalar Network.dyn_peer[49] 	lookupStabilitySig:mean 	0.76148351086304
scalar Network.dyn_peer[49] 	lookupHopsSig:mean 	12.8
scalar Network.dyn_peer[50] 	lookupTimeSig:mean 	1.45
scalar Network.dyn_peer[50] 	lookupStabilitySig:mean 	0.33761260285974
scalar Network.dyn_peer[50] 	lookupHopsSig:mean 	13.75
scalar Network.dyn_peer[51] 	lookupTimeSig:mean 	3.2333333333333
scalar Network.dyn_peer[51] 	lookupStabilitySig:mean 	0.87864255656799
scalar Network.dyn_peer[51] 	lookupHopsSig:mean 	31.666666666667
scalar Network.dyn_peer[52] 	lookupTimeSig:mean 	2.6285714285714
scalar Network.dyn_peer[52] 	lookupStabilitySig:mean 	0.64564039371908
scalar Network.dyn_peer[52] 	lookupHopsSig:mean 	25.428571428571
scalar Network.dyn_peer[53] 	lookupTimeSig:mean 	1.95
scalar Network.dyn_peer[53] 	lookupStabilitySig:mean 	0.59448096745958
scalar Network.dyn_peer[53] 	lookupHopsSig:mean 	18.666666666667
scalar Network.dyn_peer[54] 	lookupTimeSig:mean 	2.0555555555556
scalar Network.dyn_peer[54] 	lookupStabilitySig:mean 	0.76356534204549
scalar Network.dyn_peer[54] 	lookupHopsSig:mean 	19.666666666667
scalar Network.dyn_peer[55] 	lookupTimeSig:mean 	2.1142857142857
scalar Network.dyn_peer[55] 	lookupStabilitySig:mean 	0.91553728987596
scalar Network.dyn_peer[55] 	lookupHopsSig:mean 	20.285714285714
scalar Network.dyn_peer[56] 	lookupTimeSig:mean 	1.5666666666667
scalar Network.dyn_peer[56] 	lookupStabilitySig:mean 	0.52799036260694
scalar Network.dyn_peer[56] 	lookupHopsSig:mean 	14.833333333333
scalar Network.dyn_peer[57] 	lookupTimeSig:mean 	3.3666666666667
scalar Network.dyn_peer[57] 	lookupStabilitySig:mean 	0.27318840722243
scalar Network.dyn_peer[57] 	lookupHopsSig:mean 	33
scalar Network.dyn_peer[58] 	lookupTimeSig:mean 	1.55
scalar Network.dyn_peer[58] 	lookupStabilitySig:mean 	0.29937456175685
scalar Network.dyn_peer[58] 	lookupHopsSig:mean 	14.75
scalar Network.dyn_peer[59] 	lookupTimeSig:mean 	1.37
scalar Network.dyn_peer[59] 	lookupStabilitySig:mean 	0.78106512660161
scalar Network.dyn_peer[59] 	lookupHopsSig:mean 	12.8
scalar Network.dyn_peer[60] 	lookupTimeSig:mean 	1.56
scalar Network.dyn_peer[60] 	lookupStabilitySig:mean 	0.4071751371026
scalar Network.dyn_peer[60] 	lookupHopsSig:mean 	14.8
scalar Network.dyn_peer[61] 	lookupTimeSig:mean 	2.1
scalar Network.dyn_peer[61] 	lookupStabilitySig:mean 	0.64883984178305
scalar Network.dyn_peer[61] 	lookupHopsSig:mean 	20.2
scalar Network.dyn_peer[62] 	lookupTimeSig:mean 	2.12
scalar Network.dyn_peer[62] 	lookupStabilitySig:mean 	0.77162265069783
scalar Network.dyn_peer[62] 	lookupHopsSig:mean 	20.4
scalar Network.dyn_peer[63] 	lookupTimeSig:mean 	2.4333333333333
scalar Network.dyn_peer[63] 	lookupStabilitySig:mean 	0.84093245305121
scalar Network.dyn_peer[63] 	lookupHopsSig:mean 	23.5
scalar Network.dyn_peer[64] 	lookupTimeSig:mean 	1.525
scalar Network.dyn_peer[64] 	lookupStabilitySig:mean 	0.80441186464547
scalar Network.dyn_peer[64] 	lookupHopsSig:mean 	14.333333333333
scalar Network.dyn_peer[65] 	lookupTimeSig:mean 	0.83333333333333
scalar Network.dyn_peer[65] 	lookupStabilitySig:mean 	0.15656565129757
scalar Network.dyn_peer[65] 	lookupHopsSig:mean 	7.6666666666667
scalar Network.dyn_peer[66] 	lookupTimeSig:mean 	2.2833333333333
scalar Network.dyn_peer[66] 	lookupStabilitySig:mean 	0.67158085480332
scalar Network.dyn_peer[66] 	lookupHopsSig:mean 	22
scalar Network.dyn_peer[67] 	lookupTimeSig:mean 	1.075
scalar Network.dyn_peer[67] 	lookupStabilitySig:mean 	0.42857142910361
scalar Network.dyn_peer[67] 	lookupHopsSig:mean 	10
scalar Network.dyn_peer[68] 	lookupTimeSig:mean 	1.4125
scalar Network.dyn_peer[68] 	lookupStabilitySig:mean 	0.85123824514449
scalar Network.dyn_peer[68] 	lookupHopsSig:mean 	13.25
scalar Network.dyn_peer[69] 	lookupTimeSig:mean 	1.95
scalar Network.dyn_peer[69] 	lookupStabilitySig:mean 	0.50570934917778
scalar Network.dyn_peer[69] 	lookupHopsSig:mean 	18.75
scalar Network.dyn_peer[70] 	lookupTimeSig:mean 	1.9714285714286
scalar Network.dyn_peer[70] 	lookupStabilitySig:mean 	0.70646137225309
scalar Network.dyn_peer[70] 	lookupHopsSig:mean 	18.857142857143
scalar Network.dyn_peer[71] 	lookupTimeSig:mean 	1.65
scalar Network.dyn_peer[71] 	lookupStabilitySig:mean 	0.71859586264472
scalar Network.dyn_peer[71] 	lookupHopsSig:mean 	15.6
scalar Network.dyn_peer[72] 	lookupTimeSig:mean 	1.68
scalar Network.dyn_peer[72] 	lookupStabilitySig:mean 	0.43733200728893
scalar Network.dyn_peer[72] 	lookupHopsSig:mean 	16
scalar Network.dyn_peer[73] 	lookupTimeSig:mean 	2.0714285714286
scalar Network.dyn_peer[73] 	lookupStabilitySig:mean 	0.82553188356438
scalar Network.dyn_peer[73] 	lookupHopsSig:mean 	19.857142857143
scalar Network.dyn_peer[74] 	lookupTimeSig:mean 	2.225
scalar Network.dyn_peer[74] 	lookupStabilitySig:mean 	0.49162248289213
scalar Network.dyn_peer[74] 	lookupHopsSig:mean 	21.5
scalar Network.dyn_peer[75] 	lookupTimeSig:mean 	2.1
scalar Network.dyn_peer[75] 	lookupStabilitySig:mean 	0.52548314556479
scalar Network.dyn_peer[75] 	lookupHopsSig:mean 	20.2
scalar Network.dyn_peer[76] 	lookupTimeSig:mean 	1.95
scalar Network.dyn_peer[76] 	lookupStabilitySig:mean 	0.37547138147056
scalar Network.dyn_peer[76] 	lookupHopsSig:mean 	18.75
scalar Network.dyn_peer[77] 	lookupTimeSig:mean 	1.65
scalar Network.dyn_peer[77] 	lookupStabilitySig:mean 	0.56524667330086
scalar Network.dyn_peer[77] 	lookupHopsSig:mean 	15.666666666667
scalar Network.dyn_peer[78] 	lookupTimeSig:mean 	2.625
scalar Network.dyn_peer[78] 	lookupStabilitySig:mean 	0.39045386202633
scalar Network.dyn_peer[78] 	lookupHopsSig:mean 	25.5
scalar Network.dyn_peer[79] 	lookupTimeSig:mean 	1.575
scalar Network.dyn_peer[79] 	lookupStabilitySig:mean 	0.41518954187632
scalar Network.dyn_peer[79] 	lookupHopsSig:mean 	15
scalar Network.dyn_peer[80] 	lookupTimeSig:mean 	1.7
scalar Network.dyn_peer[80] 	lookupStabilitySig:mean 	0.56359006278217
scalar Network.dyn_peer[80] 	lookupHopsSig:mean 	16.25
scalar Network.dyn_peer[81] 	lookupTimeSig:mean 	2.075
scalar Network.dyn_peer[81] 	lookupStabilitySig:mean 	0.39239428937435
scalar Network.dyn_peer[81] 	lookupHopsSig:mean 	20
scalar Network.dyn_peer[82] 	lookupTimeSig:mean 	1.7857142857143
scalar Network.dyn_peer[82] 	lookupStabilitySig:mean 	0.87331493451659
scalar Network.dyn_peer[82] 	lookupHopsSig:mean 	17
scalar Network.dyn_peer[83] 	lookupTimeSig:mean 	1.68
scalar Network.dyn_peer[83] 	lookupStabilitySig:mean 	0.88184506660327
scalar Network.dyn_peer[83] 	lookupHopsSig:mean 	15.9
scalar Network.dyn_peer[84] 	lookupTimeSig:mean 	1.925
scalar Network.dyn_peer[84] 	lookupStabilitySig:mean 	0.63185322284698
scalar Network.dyn_peer[84] 	lookupHopsSig:mean 	18.5
scalar Network.dyn_peer[85] 	lookupTimeSig:mean 	3.7
scalar Network.dyn_peer[85] 	lookupStabilitySig:mean 	0.37153843790293
scalar Network.dyn_peer[85] 	lookupHopsSig:mean 	36.5
scalar Network.dyn_peer[86] 	lookupTimeSig:mean 	1.2
scalar Network.dyn_peer[86] 	lookupStabilitySig:mean 	0.58544568018988
scalar Network.dyn_peer[86] 	lookupHopsSig:mean 	11.142857142857
scalar Network.dyn_peer[87] 	lookupTimeSig:mean 	3.2666666666667
scalar Network.dyn_peer[87] 	lookupStabilitySig:mean 	0.77482517063618
scalar Network.dyn_peer[87] 	lookupHopsSig:mean 	32
scalar Network.dyn_peer[88] 	lookupTimeSig:mean 	2.925
scalar Network.dyn_peer[88] 	lookupStabilitySig:mean 	0.44245760329068
scalar Network.dyn_peer[88] 	lookupHopsSig:mean 	28.5
scalar Network.dyn_peer[89] 	lookupTimeSig:mean 	1.875
scalar Network.dyn_peer[89] 	lookupStabilitySig:mean 	0.64135441975668
scalar Network.dyn_peer[89] 	lookupHopsSig:mean 	17.875
scalar Network.dyn_peer[90] 	lookupTimeSig:mean 	2.4
scalar Network.dyn_peer[90] 	lookupStabilitySig:mean 	0.75391064062715
scalar Network.dyn_peer[90] 	lookupHopsSig:mean 	23.2
scalar Network.dyn_peer[91] 	lookupTimeSig:mean 	1.8
scalar Network.dyn_peer[91] 	lookupStabilitySig:mean 	0.76173473646243
scalar Network.dyn_peer[91] 	lookupHopsSig:mean 	17.166666666667
scalar Network.dyn_peer[92] 	lookupTimeSig:mean 	1.9142857142857
scalar Network.dyn_peer[92] 	lookupStabilitySig:mean 	0.67408461070486
scalar Network.dyn_peer[92] 	lookupHopsSig:mean 	18.285714285714
scalar Network.dyn_peer[93] 	lookupTimeSig:mean 	2.075
scalar Network.dyn_peer[93] 	lookupStabilitySig:mean 	0.39540003798902
scalar Network.dyn_peer[93] 	lookupHopsSig:mean 	20
scalar Network.dyn_peer[94] 	lookupTimeSig:mean 	1.4666666666667
scalar Network.dyn_peer[94] 	lookupStabilitySig:mean 	0.89853046896557
scalar Network.dyn_peer[94] 	lookupHopsSig:mean 	13.777777777778
scalar Network.dyn_peer[95] 	lookupTimeSig:mean 	6.05
scalar Network.dyn_peer[95] 	lookupStabilitySig:mean 	0.058350093662739
scalar Network.dyn_peer[95] 	lookupHopsSig:mean 	60
scalar Network.dyn_peer[96] 	lookupTimeSig:mean 	1.75
scalar Network.dyn_peer[96] 	lookupStabilitySig:mean 	0.56824235524982
scalar Network.dyn_peer[96] 	lookupHopsSig:mean 	16.666666666667
scalar Network.dyn_peer[97] 	lookupTimeSig:mean 	1.98
scalar Network.dyn_peer[97] 	lookupStabilitySig:mean 	0.76040834467858
scalar Network.dyn_peer[97] 	lookupHopsSig:mean 	18.9
scalar Network.dyn_peer[98] 	lookupTimeSig:mean 	1.7
scalar Network.dyn_peer[98] 	lookupStabilitySig:mean 	0.53551204316318
scalar Network.dyn_peer[98] 	lookupHopsSig:mean 	16.2
scalar Network.dyn_peer[99] 	lookupTimeSig:mean 	1.8125
scalar Network.dyn_peer[99] 	lookupStabilitySig:mean 	0.68421388685238
scalar Network.dyn_peer[99] 	lookupHopsSig:mean 	17.25
scalar Network.dyn_peer[100] 	lookupTimeSig:mean 	0.83333333333333
scalar Network.dyn_peer[100] 	lookupStabilitySig:mean 	0.14761905868848
scalar Network.dyn_peer[100] 	lookupHopsSig:mean 	7.6666666666667
scalar Network.dyn_peer[101] 	lookupTimeSig:mean 	1.66
scalar Network.dyn_peer[101] 	lookupStabilitySig:mean 	0.52452985998243
scalar Network.dyn_peer[101] 	lookupHopsSig:mean 	15.8
scalar Network.dyn_peer[102] 	lookupTimeSig:mean 	2.725
scalar Network.dyn_peer[102] 	lookupStabilitySig:mean 	0.43745801784098
scalar Network.dyn_peer[102] 	lookupHopsSig:mean 	26.5
scalar Network.dyn_peer[103] 	lookupTimeSig:mean 	3.275
scalar Network.dyn_peer[103] 	lookupStabilitySig:mean 	0.77158482465893
scalar Network.dyn_peer[103] 	lookupHopsSig:mean 	32
scalar Network.dyn_peer[104] 	lookupTimeSig:mean 	3.4
scalar Network.dyn_peer[104] 	lookupStabilitySig:mean 	0.26561357080936
scalar Network.dyn_peer[104] 	lookupHopsSig:mean 	33.333333333333
scalar Network.dyn_peer[105] 	lookupTimeSig:mean 	1.8333333333333
scalar Network.dyn_peer[105] 	lookupStabilitySig:mean 	0.58742537566771
scalar Network.dyn_peer[105] 	lookupHopsSig:mean 	17.5
scalar Network.dyn_peer[106] 	lookupTimeSig:mean 	1.575
scalar Network.dyn_peer[106] 	lookupStabilitySig:mean 	0.52096982952207
scalar Network.dyn_peer[106] 	lookupHopsSig:mean 	15
scalar Network.dyn_peer[107] 	lookupTimeSig:mean 	2.2833333333333
scalar Network.dyn_peer[107] 	lookupStabilitySig:mean 	0.59585632942617
scalar Network.dyn_peer[107] 	lookupHopsSig:mean 	22
scalar Network.dyn_peer[108] 	lookupTimeSig:mean 	2.55
scalar Network.dyn_peer[108] 	lookupStabilitySig:mean 	0.0073394328355789
scalar Network.dyn_peer[108] 	lookupHopsSig:mean 	25
scalar Network.dyn_peer[109] 	lookupTimeSig:mean 	1.4666666666667
scalar Network.dyn_peer[109] 	lookupStabilitySig:mean 	0.29027776916822
scalar Network.dyn_peer[109] 	lookupHopsSig:mean 	14
scalar Network.dyn_peer[110] 	lookupTimeSig:mean 	2.4
scalar Network.dyn_peer[110] 	lookupStabilitySig:mean 	0.87370845903125
scalar Network.dyn_peer[110] 	lookupHopsSig:mean 	23.111111111111
scalar Network.dyn_peer[111] 	lookupTimeSig:mean 	3.1
scalar Network.dyn_peer[111] 	lookupStabilitySig:mean 	0.52511647087522
scalar Network.dyn_peer[111] 	lookupHopsSig:mean 	30.25
scalar Network.dyn_peer[112] 	lookupTimeSig:mean 	1.5538461538462
scalar Network.dyn_peer[112] 	lookupStabilitySig:mean 	0.81809310099253
scalar Network.dyn_peer[112] 	lookupHopsSig:mean 	14.615384615385
scalar Network.dyn_peer[113] 	lookupTimeSig:mean 	1.9666666666667
scalar Network.dyn_peer[113] 	lookupStabilitySig:mean 	0.52809211083998
scalar Network.dyn_peer[113] 	lookupHopsSig:mean 	18.833333333333
scalar Network.dyn_peer[114] 	lookupTimeSig:mean 	2.6
scalar Network.dyn_peer[114] 	lookupStabilitySig:mean 	-0.16371680796146
scalar Network.dyn_peer[114] 	lookupHopsSig:mean 	25.5
scalar Network.dyn_peer[115] 	lookupTimeSig:mean 	2.6
scalar Network.dyn_peer[115] 	lookupStabilitySig:mean 	0.50946478297313
scalar Network.dyn_peer[115] 	lookupHopsSig:mean 	25.333333333333
scalar Network.dyn_peer[116] 	lookupTimeSig:mean 	3.85
scalar Network.dyn_peer[116] 	lookupStabilitySig:mean 	0.37230215966702
scalar Network.dyn_peer[116] 	lookupHopsSig:mean 	38
scalar Network.dyn_peer[117] 	lookupTimeSig:mean 	1.6
scalar Network.dyn_peer[117] 	lookupStabilitySig:mean 	0.70774256171925
scalar Network.dyn_peer[117] 	lookupHopsSig:mean 	15.142857142857
scalar Network.dyn_peer[118] 	lookupTimeSig:mean 	2.6
scalar Network.dyn_peer[118] 	lookupStabilitySig:mean 	0.24207719663779
scalar Network.dyn_peer[118] 	lookupHopsSig:mean 	25.333333333333
scalar Network.dyn_peer[119] 	lookupTimeSig:mean 	2.0666666666667
scalar Network.dyn_peer[119] 	lookupStabilitySig:mean 	0.88373479774843
scalar Network.dyn_peer[119] 	lookupHopsSig:mean 	19.777777777778
scalar Network.dyn_peer[120] 	lookupTimeSig:mean 	1.56
scalar Network.dyn_peer[120] 	lookupStabilitySig:mean 	0.63562167137861
scalar Network.dyn_peer[120] 	lookupHopsSig:mean 	14.8
scalar Network.dyn_peer[121] 	lookupTimeSig:mean 	4.7
scalar Network.dyn_peer[121] 	lookupStabilitySig:mean 	0.59104114770889
scalar Network.dyn_peer[121] 	lookupHopsSig:mean 	46.5
scalar Network.dyn_peer[122] 	lookupTimeSig:mean 	2.0666666666667
scalar Network.dyn_peer[122] 	lookupStabilitySig:mean 	0.68816833182548
scalar Network.dyn_peer[122] 	lookupHopsSig:mean 	19.833333333333
scalar Network.dyn_peer[123] 	lookupTimeSig:mean 	1.6
scalar Network.dyn_peer[123] 	lookupStabilitySig:mean 	0.6670002669096
scalar Network.dyn_peer[123] 	lookupHopsSig:mean 	15.2
scalar Network.dyn_peer[124] 	lookupTimeSig:mean 	1.7
scalar Network.dyn_peer[124] 	lookupStabilitySig:mean 	0.43905605468899
scalar Network.dyn_peer[124] 	lookupHopsSig:mean 	16.25
scalar Network.dyn_peer[125] 	lookupTimeSig:mean 	2.2142857142857
scalar Network.dyn_peer[125] 	lookupStabilitySig:mean 	0.86860812548548
scalar Network.dyn_peer[125] 	lookupHopsSig:mean 	21.285714285714
scalar Network.dyn_peer[126] 	lookupTimeSig:mean 	1.475
scalar Network.dyn_peer[126] 	lookupStabilitySig:mean 	0.92895058548311
scalar Network.dyn_peer[126] 	lookupHopsSig:mean 	13.875
scalar Network.dyn_peer[127] 	lookupTimeSig:mean 	1.5142857142857
scalar Network.dyn_peer[127] 	lookupStabilitySig:mean 	0.68848668118673
scalar Network.dyn_peer[127] 	lookupHopsSig:mean 	14.285714285714
scalar Network.dyn_peer[128] 	lookupTimeSig:mean 	2.2375
scalar Network.dyn_peer[128] 	lookupStabilitySig:mean 	0.71151192113757
scalar Network.dyn_peer[128] 	lookupHopsSig:mean 	21.5
scalar Network.dyn_peer[129] 	lookupTimeSig:mean 	1.55
scalar Network.dyn_peer[129] 	lookupStabilitySig:mean 	0.5483647150298
scalar Network.dyn_peer[129] 	lookupHopsSig:mean 	14.666666666667
scalar Network.dyn_peer[130] 	lookupTimeSig:mean 	1.94
scalar Network.dyn_peer[130] 	lookupStabilitySig:mean 	0.73962804786861
scalar Network.dyn_peer[130] 	lookupHopsSig:mean 	18.6
scalar Network.dyn_peer[131] 	lookupTimeSig:mean 	2.6428571428571
scalar Network.dyn_peer[131] 	lookupStabilitySig:mean 	0.94974850430819
scalar Network.dyn_peer[131] 	lookupHopsSig:mean 	25.571428571429
scalar Network.dyn_peer[132] 	lookupTimeSig:mean 	2.3666666666667
scalar Network.dyn_peer[132] 	lookupStabilitySig:mean 	0.46042242149512
scalar Network.dyn_peer[132] 	lookupHopsSig:mean 	23
scalar Network.dyn_peer[133] 	lookupTimeSig:mean 	2.225
scalar Network.dyn_peer[133] 	lookupStabilitySig:mean 	0.87071548774838
scalar Network.dyn_peer[133] 	lookupHopsSig:mean 	21.375
scalar Network.dyn_peer[134] 	lookupTimeSig:mean 	2.35
scalar Network.dyn_peer[134] 	lookupStabilitySig:mean 	0.90004271999351
scalar Network.dyn_peer[134] 	lookupHopsSig:mean 	22.625
scalar Network.dyn_peer[135] 	lookupTimeSig:mean 	1.9833333333333
scalar Network.dyn_peer[135] 	lookupStabilitySig:mean 	0.80891890265048
scalar Network.dyn_peer[135] 	lookupHopsSig:mean 	19
scalar Network.dyn_peer[136] 	lookupTimeSig:mean 	1.9444444444444
scalar Network.dyn_peer[136] 	lookupStabilitySig:mean 	0.74014192829943
scalar Network.dyn_peer[136] 	lookupHopsSig:mean 	18.555555555556
scalar Network.dyn_peer[137] 	lookupTimeSig:mean 	2.35
scalar Network.dyn_peer[137] 	lookupStabilitySig:mean 	0.74395051202737
scalar Network.dyn_peer[137] 	lookupHopsSig:mean 	22.625
scalar Network.dyn_peer[138] 	lookupTimeSig:mean 	2.3727272727273
scalar Network.dyn_peer[138] 	lookupStabilitySig:mean 	0.94964774007994
scalar Network.dyn_peer[138] 	lookupHopsSig:mean 	22.818181818182
scalar Network.dyn_peer[139] 	lookupTimeSig:mean 	1.4428571428571
scalar Network.dyn_peer[139] 	lookupStabilitySig:mean 	0.66122000185507
scalar Network.dyn_peer[139] 	lookupHopsSig:mean 	13.571428571429
scalar Network.dyn_peer[140] 	lookupTimeSig:mean 	1.45
scalar Network.dyn_peer[140] 	lookupStabilitySig:mean 	0.85858499014284
scalar Network.dyn_peer[140] 	lookupHopsSig:mean 	13.625
scalar Network.dyn_peer[141] 	lookupTimeSig:mean 	1.4714285714286
scalar Network.dyn_peer[141] 	lookupStabilitySig:mean 	0.58852668745177
scalar Network.dyn_peer[141] 	lookupHopsSig:mean 	13.857142857143
scalar Network.dyn_peer[142] 	lookupTimeSig:mean 	1.72
scalar Network.dyn_peer[142] 	lookupStabilitySig:mean 	0.81316516622901
scalar Network.dyn_peer[142] 	lookupHopsSig:mean 	16.4
scalar Network.dyn_peer[143] 	lookupTimeSig:mean 	2.65
scalar Network.dyn_peer[143] 	lookupStabilitySig:mean 	0.59965021628886
scalar Network.dyn_peer[143] 	lookupHopsSig:mean 	25.75
scalar Network.dyn_peer[144] 	lookupTimeSig:mean 	3.6333333333333
scalar Network.dyn_peer[144] 	lookupStabilitySig:mean 	0.67014958709478
scalar Network.dyn_peer[144] 	lookupHopsSig:mean 	35.666666666667
scalar Network.dyn_peer[145] 	lookupTimeSig:mean 	1.6285714285714
scalar Network.dyn_peer[145] 	lookupStabilitySig:mean 	0.655279027032
scalar Network.dyn_peer[145] 	lookupHopsSig:mean 	15.428571428571
scalar Network.dyn_peer[146] 	lookupTimeSig:mean 	1.7875
scalar Network.dyn_peer[146] 	lookupStabilitySig:mean 	0.75626105221454
scalar Network.dyn_peer[146] 	lookupHopsSig:mean 	17
scalar Network.dyn_peer[147] 	lookupTimeSig:mean 	4.35
scalar Network.dyn_peer[147] 	lookupStabilitySig:mean 	0.66958253085613
scalar Network.dyn_peer[147] 	lookupHopsSig:mean 	43
scalar Network.dyn_peer[148] 	lookupTimeSig:mean 	1.9555555555556
scalar Network.dyn_peer[148] 	lookupStabilitySig:mean 	0.89609225787636
scalar Network.dyn_peer[148] 	lookupHopsSig:mean 	18.666666666667
scalar Network.dyn_peer[149] 	lookupTimeSig:mean 	2.5333333333333
scalar Network.dyn_peer[149] 	lookupStabilitySig:mean 	0.92571090270455
scalar Network.dyn_peer[149] 	lookupHopsSig:mean 	24.5
scalar Network.dyn_peer[150] 	lookupTimeSig:mean 	2.28
scalar Network.dyn_peer[150] 	lookupStabilitySig:mean 	0.7659659717232
scalar Network.dyn_peer[150] 	lookupHopsSig:mean 	22
scalar Network.dyn_peer[151] 	lookupTimeSig:mean 	2.775
scalar Network.dyn_peer[151] 	lookupStabilitySig:mean 	0.45168125443161
scalar Network.dyn_peer[151] 	lookupHopsSig:mean 	27
scalar Network.dyn_peer[152] 	lookupTimeSig:mean 	3.075
scalar Network.dyn_peer[152] 	lookupStabilitySig:mean 	0.6871990095824
scalar Network.dyn_peer[152] 	lookupHopsSig:mean 	30
scalar Network.dyn_peer[153] 	lookupTimeSig:mean 	3.9333333333333
scalar Network.dyn_peer[153] 	lookupStabilitySig:mean 	0.82145021110773
scalar Network.dyn_peer[153] 	lookupHopsSig:mean 	38.666666666667
scalar Network.dyn_peer[154] 	lookupTimeSig:mean 	2.24
scalar Network.dyn_peer[154] 	lookupStabilitySig:mean 	0.52274328768253
scalar Network.dyn_peer[154] 	lookupHopsSig:mean 	21.6
scalar Network.dyn_peer[155] 	lookupTimeSig:mean 	2.1875
scalar Network.dyn_peer[155] 	lookupStabilitySig:mean 	0.70467271923553
scalar Network.dyn_peer[155] 	lookupHopsSig:mean 	21
scalar Network.dyn_peer[156] 	lookupTimeSig:mean 	3.25
scalar Network.dyn_peer[156] 	lookupStabilitySig:mean 	0.23671495914459
scalar Network.dyn_peer[156] 	lookupHopsSig:mean 	32
scalar Network.dyn_peer[157] 	lookupTimeSig:mean 	2.6
scalar Network.dyn_peer[157] 	lookupStabilitySig:mean 	0.72785286791623
scalar Network.dyn_peer[157] 	lookupHopsSig:mean 	25.25
scalar Network.dyn_peer[158] 	lookupTimeSig:mean 	2.5666666666667
scalar Network.dyn_peer[158] 	lookupStabilitySig:mean 	0.5522487834096
scalar Network.dyn_peer[158] 	lookupHopsSig:mean 	25
scalar Network.dyn_peer[159] 	lookupTimeSig:mean 	1.975
scalar Network.dyn_peer[159] 	lookupStabilitySig:mean 	0.47198412008584
scalar Network.dyn_peer[159] 	lookupHopsSig:mean 	19
scalar Network.dyn_peer[160] 	lookupTimeSig:mean 	3.0666666666667
scalar Network.dyn_peer[160] 	lookupStabilitySig:mean 	0.73889528587461
scalar Network.dyn_peer[160] 	lookupHopsSig:mean 	30
scalar Network.dyn_peer[161] 	lookupTimeSig:mean 	1.5
scalar Network.dyn_peer[161] 	lookupStabilitySig:mean 	0.75561636313796
scalar Network.dyn_peer[161] 	lookupHopsSig:mean 	14.25
scalar Network.dyn_peer[162] 	lookupTimeSig:mean 	2.16
scalar Network.dyn_peer[162] 	lookupStabilitySig:mean 	0.60840318836272
scalar Network.dyn_peer[162] 	lookupHopsSig:mean 	20.8
scalar Network.dyn_peer[163] 	lookupTimeSig:mean 	1.62
scalar Network.dyn_peer[163] 	lookupStabilitySig:mean 	0.9409557752156
scalar Network.dyn_peer[163] 	lookupHopsSig:mean 	15.266666666667
scalar Network.dyn_peer[164] 	lookupTimeSig:mean 	2.3714285714286
scalar Network.dyn_peer[164] 	lookupStabilitySig:mean 	0.92293312736521
scalar Network.dyn_peer[164] 	lookupHopsSig:mean 	22.857142857143
scalar Network.dyn_peer[165] 	lookupTimeSig:mean 	1.7
scalar Network.dyn_peer[165] 	lookupStabilitySig:mean 	0.91039053226511
scalar Network.dyn_peer[165] 	lookupHopsSig:mean 	16.166666666667
scalar Network.dyn_peer[166] 	lookupTimeSig:mean 	1.6666666666667
scalar Network.dyn_peer[166] 	lookupStabilitySig:mean 	0.17395654320717
scalar Network.dyn_peer[166] 	lookupHopsSig:mean 	16
scalar Network.dyn_peer[167] 	lookupTimeSig:mean 	2.2333333333333
scalar Network.dyn_peer[167] 	lookupStabilitySig:mean 	0.2565698971351
scalar Network.dyn_peer[167] 	lookupHopsSig:mean 	21.666666666667
scalar Network.dyn_peer[168] 	lookupTimeSig:mean 	2.1
scalar Network.dyn_peer[168] 	lookupStabilitySig:mean 	0.54276645183563
scalar Network.dyn_peer[168] 	lookupHopsSig:mean 	20.5
scalar Network.dyn_peer[169] 	lookupTimeSig:mean 	1.5
scalar Network.dyn_peer[169] 	lookupStabilitySig:mean 	0.62943949177861
scalar Network.dyn_peer[169] 	lookupHopsSig:mean 	14.142857142857
scalar Network.dyn_peer[170] 	lookupTimeSig:mean 	1.8666666666667
scalar Network.dyn_peer[170] 	lookupStabilitySig:mean 	0.90815611059467
scalar Network.dyn_peer[170] 	lookupHopsSig:mean 	17.833333333333
scalar Network.dyn_peer[171] 	lookupTimeSig:mean 	1.84
scalar Network.dyn_peer[171] 	lookupStabilitySig:mean 	0.59949108734727
scalar Network.dyn_peer[171] 	lookupHopsSig:mean 	17.6
scalar Network.dyn_peer[172] 	lookupTimeSig:mean 	1.6166666666667
scalar Network.dyn_peer[172] 	lookupStabilitySig:mean 	0.91706010171523
scalar Network.dyn_peer[172] 	lookupHopsSig:mean 	15.333333333333
scalar Network.dyn_peer[173] 	lookupTimeSig:mean 	1.85
scalar Network.dyn_peer[173] 	lookupStabilitySig:mean 	0.92616071552038
scalar Network.dyn_peer[173] 	lookupHopsSig:mean 	17.625
scalar Network.dyn_peer[174] 	lookupTimeSig:mean 	1.1
scalar Network.dyn_peer[174] 	lookupStabilitySig:mean 	0.077235768238703
scalar Network.dyn_peer[174] 	lookupHopsSig:mean 	10.333333333333
scalar Network.dyn_peer[175] 	lookupTimeSig:mean 	2.14
scalar Network.dyn_peer[175] 	lookupStabilitySig:mean 	0.68315106406808
scalar Network.dyn_peer[175] 	lookupHopsSig:mean 	20.6
scalar Network.dyn_peer[176] 	lookupTimeSig:mean 	2.1875
scalar Network.dyn_peer[176] 	lookupStabilitySig:mean 	0.88120612129569
scalar Network.dyn_peer[176] 	lookupHopsSig:mean 	21
scalar Network.dyn_peer[177] 	lookupTimeSig:mean 	1.54
scalar Network.dyn_peer[177] 	lookupStabilitySig:mean 	0.73590505523607
scalar Network.dyn_peer[177] 	lookupHopsSig:mean 	14.5
scalar Network.dyn_peer[178] 	lookupTimeSig:mean 	1.3181818181818
scalar Network.dyn_peer[178] 	lookupStabilitySig:mean 	0.78658855884251
scalar Network.dyn_peer[178] 	lookupHopsSig:mean 	12.272727272727
scalar Network.dyn_peer[179] 	lookupTimeSig:mean 	2.15
scalar Network.dyn_peer[179] 	lookupStabilitySig:mean 	0.91587266962354
scalar Network.dyn_peer[179] 	lookupHopsSig:mean 	20.666666666667
scalar Network.dyn_peer[180] 	lookupTimeSig:mean 	1.88
scalar Network.dyn_peer[180] 	lookupStabilitySig:mean 	0.67024633735418
scalar Network.dyn_peer[180] 	lookupHopsSig:mean 	18
scalar Network.dyn_peer[181] 	lookupTimeSig:mean 	2.24
scalar Network.dyn_peer[181] 	lookupStabilitySig:mean 	0.52907431200147
scalar Network.dyn_peer[181] 	lookupHopsSig:mean 	21.6
scalar Network.dyn_peer[182] 	lookupTimeSig:mean 	1.925
scalar Network.dyn_peer[182] 	lookupStabilitySig:mean 	0.60207952652127
scalar Network.dyn_peer[182] 	lookupHopsSig:mean 	18.5
scalar Network.dyn_peer[183] 	lookupTimeSig:mean 	1.5625
scalar Network.dyn_peer[183] 	lookupStabilitySig:mean 	0.78854531852994
scalar Network.dyn_peer[183] 	lookupHopsSig:mean 	14.75
scalar Network.dyn_peer[184] 	lookupTimeSig:mean 	1.5375
scalar Network.dyn_peer[184] 	lookupStabilitySig:mean 	0.69017248071032
scalar Network.dyn_peer[184] 	lookupHopsSig:mean 	14.5
scalar Network.dyn_peer[185] 	lookupTimeSig:mean 	2.64
scalar Network.dyn_peer[185] 	lookupStabilitySig:mean 	0.89506982117891
scalar Network.dyn_peer[185] 	lookupHopsSig:mean 	25.6
scalar Network.dyn_peer[186] 	lookupTimeSig:mean 	2.6666666666667
scalar Network.dyn_peer[186] 	lookupStabilitySig:mean 	0.83194223667185
scalar Network.dyn_peer[186] 	lookupHopsSig:mean 	26
scalar Network.dyn_peer[187] 	lookupTimeSig:mean 	2.1857142857143
scalar Network.dyn_peer[187] 	lookupStabilitySig:mean 	0.77110610496519
scalar Network.dyn_peer[187] 	lookupHopsSig:mean 	21
scalar Network.dyn_peer[188] 	lookupTimeSig:mean 	3.4666666666667
scalar Network.dyn_peer[188] 	lookupStabilitySig:mean 	0.87963263876736
scalar Network.dyn_peer[188] 	lookupHopsSig:mean 	34
scalar Network.dyn_peer[189] 	lookupTimeSig:mean 	2.6
scalar Network.dyn_peer[189] 	lookupStabilitySig:mean 	0.66393220673005
scalar Network.dyn_peer[189] 	lookupHopsSig:mean 	25.333333333333
scalar Network.dyn_peer[190] 	lookupTimeSig:mean 	3.2
scalar Network.dyn_peer[190] 	lookupStabilitySig:mean 	0.75215559080243
scalar Network.dyn_peer[190] 	lookupHopsSig:mean 	31.25
scalar Network.dyn_peer[191] 	lookupTimeSig:mean 	2.2
scalar Network.dyn_peer[191] 	lookupStabilitySig:mean 	0.64357716031373
scalar Network.dyn_peer[191] 	lookupHopsSig:mean 	21.25
scalar Network.dyn_peer[192] 	lookupTimeSig:mean 	3.2333333333333
scalar Network.dyn_peer[192] 	lookupStabilitySig:mean 	0.46218367045124
scalar Network.dyn_peer[192] 	lookupHopsSig:mean 	31.666666666667
scalar Network.dyn_peer[193] 	lookupTimeSig:mean 	1.74
scalar Network.dyn_peer[193] 	lookupStabilitySig:mean 	0.71476371586323
scalar Network.dyn_peer[193] 	lookupHopsSig:mean 	16.6
scalar Network.dyn_peer[194] 	lookupTimeSig:mean 	2.35
scalar Network.dyn_peer[194] 	lookupStabilitySig:mean 	0.56956750061363
scalar Network.dyn_peer[194] 	lookupHopsSig:mean 	22.75
scalar Network.dyn_peer[195] 	lookupTimeSig:mean 	2.75
scalar Network.dyn_peer[195] 	lookupStabilitySig:mean 	0.84907904313877
scalar Network.dyn_peer[195] 	lookupHopsSig:mean 	26.75
scalar Network.dyn_peer[196] 	lookupTimeSig:mean 	4.1
scalar Network.dyn_peer[196] 	lookupStabilitySig:mean 	0.7325344743828
scalar Network.dyn_peer[196] 	lookupHopsSig:mean 	40.333333333333
scalar Network.dyn_peer[197] 	lookupTimeSig:mean 	1.4909090909091
scalar Network.dyn_peer[197] 	lookupStabilitySig:mean 	0.83834462185306
scalar Network.dyn_peer[197] 	lookupHopsSig:mean 	14
scalar Network.dyn_peer[198] 	lookupTimeSig:mean 	1.82
scalar Network.dyn_peer[198] 	lookupStabilitySig:mean 	0.81664041690528
scalar Network.dyn_peer[198] 	lookupHopsSig:mean 	17.4
scalar Network.dyn_peer[199] 	lookupTimeSig:mean 	4.3
scalar Network.dyn_peer[199] 	lookupStabilitySig:mean 	0.41939890384674
scalar Network.dyn_peer[199] 	lookupHopsSig:mean 	42.5
scalar Network.dyn_peer[200] 	lookupTimeSig:mean 	1.7692307692308
scalar Network.dyn_peer[200] 	lookupStabilitySig:mean 	0.80484930291557
scalar Network.dyn_peer[200] 	lookupHopsSig:mean 	16.769230769231
scalar Network.dyn_peer[201] 	lookupTimeSig:mean 	2.4666666666667
scalar Network.dyn_peer[201] 	lookupStabilitySig:mean 	0.78223380632699
scalar Network.dyn_peer[201] 	lookupHopsSig:mean 	23.833333333333
scalar Network.dyn_peer[202] 	lookupTimeSig:mean 	2.0666666666667
scalar Network.dyn_peer[202] 	lookupStabilitySig:mean 	0.95478365580655
scalar Network.dyn_peer[202] 	lookupHopsSig:mean 	19.777777777778
scalar Network.dyn_peer[203] 	lookupTimeSig:mean 	1.6
scalar Network.dyn_peer[203] 	lookupStabilitySig:mean 	0.49597288668156
scalar Network.dyn_peer[203] 	lookupHopsSig:mean 	15.2
scalar Network.dyn_peer[204] 	lookupTimeSig:mean 	2.0333333333333
scalar Network.dyn_peer[204] 	lookupStabilitySig:mean 	0.89304340558334
scalar Network.dyn_peer[204] 	lookupHopsSig:mean 	19.444444444444
scalar Network.dyn_peer[205] 	lookupTimeSig:mean 	1.85
scalar Network.dyn_peer[205] 	lookupStabilitySig:mean 	0.59181425037483
scalar Network.dyn_peer[205] 	lookupHopsSig:mean 	17.666666666667
scalar Network.dyn_peer[206] 	lookupTimeSig:mean 	2.3285714285714
scalar Network.dyn_peer[206] 	lookupStabilitySig:mean 	0.82303247414529
scalar Network.dyn_peer[206] 	lookupHopsSig:mean 	22.428571428571
scalar Network.dyn_peer[207] 	lookupTimeSig:mean 	1.0888888888889
scalar Network.dyn_peer[207] 	lookupStabilitySig:mean 	0.75583929811708
scalar Network.dyn_peer[207] 	lookupHopsSig:mean 	10
scalar Network.dyn_peer[208] 	lookupTimeSig:mean 	2.8
scalar Network.dyn_peer[208] 	lookupStabilitySig:mean 	0.54306970089674
scalar Network.dyn_peer[208] 	lookupHopsSig:mean 	27.2
scalar Network.dyn_peer[209] 	lookupTimeSig:mean 	1.7
scalar Network.dyn_peer[209] 	lookupStabilitySig:mean 	0.24170984327793
scalar Network.dyn_peer[209] 	lookupHopsSig:mean 	16.333333333333
scalar Network.dyn_peer[210] 	lookupTimeSig:mean 	2.16
scalar Network.dyn_peer[210] 	lookupStabilitySig:mean 	0.74830856658518
scalar Network.dyn_peer[210] 	lookupHopsSig:mean 	20.8
scalar Network.dyn_peer[211] 	lookupTimeSig:mean 	2.2727272727273
scalar Network.dyn_peer[211] 	lookupStabilitySig:mean 	0.96050419007555
scalar Network.dyn_peer[211] 	lookupHopsSig:mean 	21.818181818182
scalar Network.dyn_peer[212] 	lookupTimeSig:mean 	1.4
scalar Network.dyn_peer[212] 	lookupStabilitySig:mean 	0.57182992482558
scalar Network.dyn_peer[212] 	lookupHopsSig:mean 	13.166666666667
scalar Network.dyn_peer[213] 	lookupTimeSig:mean 	1.9615384615385
scalar Network.dyn_peer[213] 	lookupStabilitySig:mean 	0.93280330851961
scalar Network.dyn_peer[213] 	lookupHopsSig:mean 	18.692307692308
scalar Network.dyn_peer[214] 	lookupTimeSig:mean 	4.15
scalar Network.dyn_peer[214] 	lookupStabilitySig:mean 	0.80267052911222
scalar Network.dyn_peer[214] 	lookupHopsSig:mean 	41
scalar Network.dyn_peer[215] 	lookupTimeSig:mean 	1
scalar Network.dyn_peer[215] 	lookupStabilitySig:mean 	0.59528619237244
scalar Network.dyn_peer[215] 	lookupHopsSig:mean 	9.25
scalar Network.dyn_peer[216] 	lookupTimeSig:mean 	2
scalar Network.dyn_peer[216] 	lookupStabilitySig:mean 	0.30226233104865
scalar Network.dyn_peer[216] 	lookupHopsSig:mean 	19.333333333333
scalar Network.dyn_peer[217] 	lookupTimeSig:mean 	1.8
scalar Network.dyn_peer[217] 	lookupStabilitySig:mean 	0.57590979933739
scalar Network.dyn_peer[217] 	lookupHopsSig:mean 	17.2
scalar Network.dyn_peer[218] 	lookupTimeSig:mean 	1.9285714285714
scalar Network.dyn_peer[218] 	lookupStabilitySig:mean 	0.75383342908961
scalar Network.dyn_peer[218] 	lookupHopsSig:mean 	18.428571428571
scalar Network.dyn_peer[219] 	lookupTimeSig:mean 	1.1833333333333
scalar Network.dyn_peer[219] 	lookupStabilitySig:mean 	0.56625541206449
scalar Network.dyn_peer[219] 	lookupHopsSig:mean 	11
scalar Network.dyn_peer[220] 	lookupTimeSig:mean 	1.5
scalar Network.dyn_peer[220] 	lookupStabilitySig:mean 	0.015151515603065
scalar Network.dyn_peer[220] 	lookupHopsSig:mean 	14.5
scalar Network.dyn_peer[221] 	lookupTimeSig:mean 	2.2833333333333
scalar Network.dyn_peer[221] 	lookupStabilitySig:mean 	0.91976901547362
scalar Network.dyn_peer[221] 	lookupHopsSig:mean 	22
scalar Network.dyn_peer[222] 	lookupTimeSig:mean 	2.16
scalar Network.dyn_peer[222] 	lookupStabilitySig:mean 	0.6109246160835
scalar Network.dyn_peer[222] 	lookupHopsSig:mean 	20.8
scalar Network.dyn_peer[223] 	lookupTimeSig:mean 	1.55
scalar Network.dyn_peer[223] 	lookupStabilitySig:mean 	0.41930490825325
scalar Network.dyn_peer[223] 	lookupHopsSig:mean 	14.75
scalar Network.dyn_peer[224] 	lookupTimeSig:mean 	1.75
scalar Network.dyn_peer[224] 	lookupStabilitySig:mean 	0.90449921577238
scalar Network.dyn_peer[224] 	lookupHopsSig:mean 	16.583333333333
scalar Network.dyn_peer[225] 	lookupTimeSig:mean 	1.875
scalar Network.dyn_peer[225] 	lookupStabilitySig:mean 	0.74264117778512
scalar Network.dyn_peer[225] 	lookupHopsSig:mean 	17.875
scalar Network.dyn_peer[226] 	lookupTimeSig:mean 	1.9166666666667
scalar Network.dyn_peer[226] 	lookupStabilitySig:mean 	0.82614979396264
scalar Network.dyn_peer[226] 	lookupHopsSig:mean 	18.333333333333
scalar Network.dyn_peer[227] 	lookupTimeSig:mean 	1.8444444444444
scalar Network.dyn_peer[227] 	lookupStabilitySig:mean 	0.76039792431725
scalar Network.dyn_peer[227] 	lookupHopsSig:mean 	17.555555555556
scalar Network.dyn_peer[228] 	lookupTimeSig:mean 	1.95
scalar Network.dyn_peer[228] 	lookupStabilitySig:mean 	0.56587838381529
scalar Network.dyn_peer[228] 	lookupHopsSig:mean 	18.75
scalar Network.dyn_peer[229] 	lookupTimeSig:mean 	2.4
scalar Network.dyn_peer[229] 	lookupStabilitySig:mean 	0.90796018329759
scalar Network.dyn_peer[229] 	lookupHopsSig:mean 	23.166666666667
scalar Network.dyn_peer[230] 	lookupTimeSig:mean 	1.725
scalar Network.dyn_peer[230] 	lookupStabilitySig:mean 	0.85582040855661
scalar Network.dyn_peer[230] 	lookupHopsSig:mean 	16.375
scalar Network.dyn_peer[231] 	lookupTimeSig:mean 	2.9181818181818
scalar Network.dyn_peer[231] 	lookupStabilitySig:mean 	0.95712620155378
scalar Network.dyn_peer[231] 	lookupHopsSig:mean 	28.272727272727
scalar Network.dyn_peer[232] 	lookupTimeSig:mean 	3.775
scalar Network.dyn_peer[232] 	lookupStabilitySig:mean 	0.54354951437563
scalar Network.dyn_peer[232] 	lookupHopsSig:mean 	37
scalar Network.dyn_peer[233] 	lookupTimeSig:mean 	2.825
scalar Network.dyn_peer[233] 	lookupStabilitySig:mean 	0.95108473941218
scalar Network.dyn_peer[233] 	lookupHopsSig:mean 	27.375
scalar Network.dyn_peer[234] 	lookupTimeSig:mean 	1.4444444444444
scalar Network.dyn_peer[234] 	lookupStabilitySig:mean 	0.77155856486772
scalar Network.dyn_peer[234] 	lookupHopsSig:mean 	13.555555555556
scalar Network.dyn_peer[235] 	lookupTimeSig:mean 	2.04
scalar Network.dyn_peer[235] 	lookupStabilitySig:mean 	0.58007462117821
scalar Network.dyn_peer[235] 	lookupHopsSig:mean 	19.6
scalar Network.dyn_peer[236] 	lookupTimeSig:mean 	2.0777777777778
scalar Network.dyn_peer[236] 	lookupStabilitySig:mean 	0.90576982291208
scalar Network.dyn_peer[236] 	lookupHopsSig:mean 	19.888888888889
scalar Network.dyn_peer[237] 	lookupTimeSig:mean 	1.4
scalar Network.dyn_peer[237] 	lookupStabilitySig:mean 	0.18736816445986
scalar Network.dyn_peer[237] 	lookupHopsSig:mean 	13.333333333333
scalar Network.dyn_peer[238] 	lookupTimeSig:mean 	2.05
scalar Network.dyn_peer[238] 	lookupStabilitySig:mean 	0.8016064837575
scalar Network.dyn_peer[238] 	lookupHopsSig:mean 	19.75
scalar Network.dyn_peer[239] 	lookupTimeSig:mean 	1.7666666666667
scalar Network.dyn_peer[239] 	lookupStabilitySig:mean 	0.63540787389502
scalar Network.dyn_peer[239] 	lookupHopsSig:mean 	16.833333333333
scalar Network.dyn_peer[240] 	lookupTimeSig:mean 	2.725
scalar Network.dyn_peer[240] 	lookupStabilitySig:mean 	0.45953251607716
scalar Network.dyn_peer[240] 	lookupHopsSig:mean 	26.5
scalar Network.dyn_peer[241] 	lookupTimeSig:mean 	1.8888888888889
scalar Network.dyn_peer[241] 	lookupStabilitySig:mean 	0.86446012297852
scalar Network.dyn_peer[241] 	lookupHopsSig:mean 	18
scalar Network.dyn_peer[242] 	lookupTimeSig:mean 	2.275
scalar Network.dyn_peer[242] 	lookupStabilitySig:mean 	0.73926111659966
scalar Network.dyn_peer[242] 	lookupHopsSig:mean 	21.875
scalar Network.dyn_peer[243] 	lookupTimeSig:mean 	3.55
scalar Network.dyn_peer[243] 	lookupStabilitySig:mean 	0.1698924601078
scalar Network.dyn_peer[243] 	lookupHopsSig:mean 	35
scalar Network.dyn_peer[244] 	lookupTimeSig:mean 	2.625
scalar Network.dyn_peer[244] 	lookupStabilitySig:mean 	0.4194944575429
scalar Network.dyn_peer[244] 	lookupHopsSig:mean 	25.5
scalar Network.dyn_peer[245] 	lookupTimeSig:mean 	2.7222222222222
scalar Network.dyn_peer[245] 	lookupStabilitySig:mean 	0.91576799377799
scalar Network.dyn_peer[245] 	lookupHopsSig:mean 	26.333333333333
scalar Network.dyn_peer[246] 	lookupTimeSig:mean 	1.6
scalar Network.dyn_peer[246] 	lookupStabilitySig:mean 	0.42342959158123
scalar Network.dyn_peer[246] 	lookupHopsSig:mean 	15.25
scalar Network.dyn_peer[247] 	lookupTimeSig:mean 	2.35
scalar Network.dyn_peer[247] 	lookupStabilitySig:mean 	0.40677960962057
scalar Network.dyn_peer[247] 	lookupHopsSig:mean 	22.75
scalar Network.dyn_peer[248] 	lookupTimeSig:mean 	2.68
scalar Network.dyn_peer[248] 	lookupStabilitySig:mean 	0.9100652648136
scalar Network.dyn_peer[248] 	lookupHopsSig:mean 	26
scalar Network.dyn_peer[249] 	lookupTimeSig:mean 	5.2
scalar Network.dyn_peer[249] 	lookupStabilitySig:mean 	0.61807229369879
scalar Network.dyn_peer[249] 	lookupHopsSig:mean 	51.5
scalar Network.dyn_peer[250] 	lookupTimeSig:mean 	3.0833333333333
scalar Network.dyn_peer[250] 	lookupStabilitySig:mean 	0.94070937034364
scalar Network.dyn_peer[250] 	lookupHopsSig:mean 	30
scalar Network.dyn_peer[251] 	lookupTimeSig:mean 	2.325
scalar Network.dyn_peer[251] 	lookupStabilitySig:mean 	0.75033576530404
scalar Network.dyn_peer[251] 	lookupHopsSig:mean 	22.5
scalar Network.dyn_peer[252] 	lookupTimeSig:mean 	1.1428571428571
scalar Network.dyn_peer[252] 	lookupStabilitySig:mean 	0.87017249259433
scalar Network.dyn_peer[252] 	lookupHopsSig:mean 	10.571428571429
scalar Network.dyn_peer[253] 	lookupTimeSig:mean 	2.35
scalar Network.dyn_peer[253] 	lookupStabilitySig:mean 	0.39999999850988
scalar Network.dyn_peer[253] 	lookupHopsSig:mean 	23
scalar Network.dyn_peer[254] 	lookupTimeSig:mean 	1.8571428571429
scalar Network.dyn_peer[254] 	lookupStabilitySig:mean 	0.8727116732459
scalar Network.dyn_peer[254] 	lookupHopsSig:mean 	17.714285714286
scalar Network.dyn_peer[255] 	lookupTimeSig:mean 	2.08
scalar Network.dyn_peer[255] 	lookupStabilitySig:mean 	0.84147920263931
scalar Network.dyn_peer[255] 	lookupHopsSig:mean 	19.9
scalar Network.dyn_peer[256] 	lookupTimeSig:mean 	1.3461538461538
scalar Network.dyn_peer[256] 	lookupStabilitySig:mean 	0.92521631051428
scalar Network.dyn_peer[256] 	lookupHopsSig:mean 	12.538461538462
scalar Network.dyn_peer[257] 	lookupTimeSig:mean 	2.4666666666667
scalar Network.dyn_peer[257] 	lookupStabilitySig:mean 	0.30030413965384
scalar Network.dyn_peer[257] 	lookupHopsSig:mean 	24
scalar Network.dyn_peer[258] 	lookupTimeSig:mean 	2.2
scalar Network.dyn_peer[258] 	lookupStabilitySig:mean 	0.78010735164086
scalar Network.dyn_peer[258] 	lookupHopsSig:mean 	21.333333333333
scalar Network.dyn_peer[259] 	lookupTimeSig:mean 	2.42
scalar Network.dyn_peer[259] 	lookupStabilitySig:mean 	0.61732093393803
scalar Network.dyn_peer[259] 	lookupHopsSig:mean 	23.4
scalar Network.dyn_peer[260] 	lookupTimeSig:mean 	2.95
scalar Network.dyn_peer[260] 	lookupStabilitySig:mean 	0.65493021160364
scalar Network.dyn_peer[260] 	lookupHopsSig:mean 	29
scalar Network.dyn_peer[261] 	lookupTimeSig:mean 	2.5666666666667
scalar Network.dyn_peer[261] 	lookupStabilitySig:mean 	0.96220549413313
scalar Network.dyn_peer[261] 	lookupHopsSig:mean 	24.75
scalar Network.dyn_peer[262] 	lookupTimeSig:mean 	1.4
scalar Network.dyn_peer[262] 	lookupStabilitySig:mean 	-0.038720563054085
scalar Network.dyn_peer[262] 	lookupHopsSig:mean 	13.5
scalar Network.dyn_peer[263] 	lookupTimeSig:mean 	2.8333333333333
scalar Network.dyn_peer[263] 	lookupStabilitySig:mean 	0.77380045751731
scalar Network.dyn_peer[263] 	lookupHopsSig:mean 	27.666666666667
scalar Network.dyn_peer[264] 	lookupTimeSig:mean 	2.3833333333333
scalar Network.dyn_peer[264] 	lookupStabilitySig:mean 	0.92848628937888
scalar Network.dyn_peer[264] 	lookupHopsSig:mean 	23
scalar Network.dyn_peer[265] 	lookupTimeSig:mean 	1.95
scalar Network.dyn_peer[265] 	lookupStabilitySig:mean 	0.73965922712038
scalar Network.dyn_peer[265] 	lookupHopsSig:mean 	18.666666666667
scalar Network.dyn_peer[266] 	lookupTimeSig:mean 	2.225
scalar Network.dyn_peer[266] 	lookupStabilitySig:mean 	0.82000226795208
scalar Network.dyn_peer[266] 	lookupHopsSig:mean 	21.375
scalar Network.dyn_peer[267] 	lookupTimeSig:mean 	2.5222222222222
scalar Network.dyn_peer[267] 	lookupStabilitySig:mean 	0.95096941406114
scalar Network.dyn_peer[267] 	lookupHopsSig:mean 	24.333333333333
scalar Network.dyn_peer[268] 	lookupTimeSig:mean 	2.7
scalar Network.dyn_peer[268] 	lookupStabilitySig:mean 	0.50446426868439
scalar Network.dyn_peer[268] 	lookupHopsSig:mean 	26.333333333333
scalar Network.dyn_peer[269] 	lookupTimeSig:mean 	1.375
scalar Network.dyn_peer[269] 	lookupStabilitySig:mean 	0.67676398949698
scalar Network.dyn_peer[269] 	lookupHopsSig:mean 	12.875
scalar Network.dyn_peer[270] 	lookupTimeSig:mean 	3.35
scalar Network.dyn_peer[270] 	lookupStabilitySig:mean 	0.80918266577646
scalar Network.dyn_peer[270] 	lookupHopsSig:mean 	32.75
scalar Network.dyn_peer[271] 	lookupTimeSig:mean 	2.62
scalar Network.dyn_peer[271] 	lookupStabilitySig:mean 	0.75802742913365
scalar Network.dyn_peer[271] 	lookupHopsSig:mean 	25.4
scalar Network.dyn_peer[272] 	lookupTimeSig:mean 	1.4
scalar Network.dyn_peer[272] 	lookupStabilitySig:mean 	0.81295766305322
scalar Network.dyn_peer[272] 	lookupHopsSig:mean 	13.076923076923
scalar Network.dyn_peer[273] 	lookupTimeSig:mean 	1.95
scalar Network.dyn_peer[273] 	lookupStabilitySig:mean 	0.77059403426635
scalar Network.dyn_peer[273] 	lookupHopsSig:mean 	18.666666666667
scalar Network.dyn_peer[274] 	lookupTimeSig:mean 	3.95
scalar Network.dyn_peer[274] 	lookupStabilitySig:mean 	0.78927778825164
scalar Network.dyn_peer[274] 	lookupHopsSig:mean 	39
scalar Network.dyn_peer[275] 	lookupTimeSig:mean 	1.5272727272727
scalar Network.dyn_peer[275] 	lookupStabilitySig:mean 	0.93500815856863
scalar Network.dyn_peer[275] 	lookupHopsSig:mean 	14.363636363636
scalar Network.dyn_peer[276] 	lookupTimeSig:mean 	2.1333333333333
scalar Network.dyn_peer[276] 	lookupStabilitySig:mean 	0.28685872256756
scalar Network.dyn_peer[276] 	lookupHopsSig:mean 	20.666666666667
scalar Network.dyn_peer[277] 	lookupTimeSig:mean 	1.7857142857143
scalar Network.dyn_peer[277] 	lookupStabilitySig:mean 	0.71910404147846
scalar Network.dyn_peer[277] 	lookupHopsSig:mean 	17
scalar Network.dyn_peer[278] 	lookupTimeSig:mean 	2.92
scalar Network.dyn_peer[278] 	lookupStabilitySig:mean 	0.85236846357584
scalar Network.dyn_peer[278] 	lookupHopsSig:mean 	28.4
scalar Network.dyn_peer[279] 	lookupTimeSig:mean 	1.7
scalar Network.dyn_peer[279] 	lookupStabilitySig:mean 	0.71850084202985
scalar Network.dyn_peer[279] 	lookupHopsSig:mean 	16.166666666667
scalar Network.dyn_peer[280] 	lookupTimeSig:mean 	2.7333333333333
scalar Network.dyn_peer[280] 	lookupStabilitySig:mean 	0.89890903110305
scalar Network.dyn_peer[280] 	lookupHopsSig:mean 	26.666666666667
scalar Network.dyn_peer[281] 	lookupTimeSig:mean 	2.92
scalar Network.dyn_peer[281] 	lookupStabilitySig:mean 	0.89007326811552
scalar Network.dyn_peer[281] 	lookupHopsSig:mean 	28.4
scalar Network.dyn_peer[282] 	lookupTimeSig:mean 	1.6866666666667
scalar Network.dyn_peer[282] 	lookupStabilitySig:mean 	0.96245196567227
scalar Network.dyn_peer[282] 	lookupHopsSig:mean 	15.933333333333
scalar Network.dyn_peer[283] 	lookupTimeSig:mean 	1.7333333333333
scalar Network.dyn_peer[283] 	lookupStabilitySig:mean 	0.82717318010206
scalar Network.dyn_peer[283] 	lookupHopsSig:mean 	16.5
scalar Network.dyn_peer[284] 	lookupTimeSig:mean 	1.5
scalar Network.dyn_peer[284] 	lookupStabilitySig:mean 	0.73830833472311
scalar Network.dyn_peer[284] 	lookupHopsSig:mean 	14.25
scalar Network.dyn_peer[285] 	lookupTimeSig:mean 	2.0666666666667
scalar Network.dyn_peer[285] 	lookupStabilitySig:mean 	0.71287632578363
scalar Network.dyn_peer[285] 	lookupHopsSig:mean 	19.833333333333
scalar Network.dyn_peer[286] 	lookupTimeSig:mean 	3.0666666666667
scalar Network.dyn_peer[286] 	lookupStabilitySig:mean 	0.87050446247061
scalar Network.dyn_peer[286] 	lookupHopsSig:mean 	30
scalar Network.dyn_peer[287] 	lookupTimeSig:mean 	3.125
scalar Network.dyn_peer[287] 	lookupStabilitySig:mean 	0.80132450908422
scalar Network.dyn_peer[287] 	lookupHopsSig:mean 	30.5
scalar Network.dyn_peer[288] 	lookupTimeSig:mean 	1.675
scalar Network.dyn_peer[288] 	lookupStabilitySig:mean 	0.82023041578941
scalar Network.dyn_peer[288] 	lookupHopsSig:mean 	15.875
scalar Network.dyn_peer[289] 	lookupTimeSig:mean 	1.5333333333333
scalar Network.dyn_peer[289] 	lookupStabilitySig:mean 	0.62577055084209
scalar Network.dyn_peer[289] 	lookupHopsSig:mean 	14.5
scalar Network.dyn_peer[290] 	lookupTimeSig:mean 	1.5833333333333
scalar Network.dyn_peer[290] 	lookupStabilitySig:mean 	0.70728513350089
scalar Network.dyn_peer[290] 	lookupHopsSig:mean 	15
scalar Network.dyn_peer[291] 	lookupTimeSig:mean 	1.58
scalar Network.dyn_peer[291] 	lookupStabilitySig:mean 	0.63292862027884
scalar Network.dyn_peer[291] 	lookupHopsSig:mean 	15
scalar Network.dyn_peer[292] 	lookupTimeSig:mean 	3.1
scalar Network.dyn_peer[292] 	lookupStabilitySig:mean 	0.76461931783706
scalar Network.dyn_peer[292] 	lookupHopsSig:mean 	30.25
scalar Network.dyn_peer[293] 	lookupTimeSig:mean 	2.48
scalar Network.dyn_peer[293] 	lookupStabilitySig:mean 	0.89455043897033
scalar Network.dyn_peer[293] 	lookupHopsSig:mean 	24
scalar Network.dyn_peer[294] 	lookupTimeSig:mean 	1.28
scalar Network.dyn_peer[294] 	lookupStabilitySig:mean 	0.51631946563721
scalar Network.dyn_peer[294] 	lookupHopsSig:mean 	12
scalar Network.dyn_peer[295] 	lookupTimeSig:mean 	4.2
scalar Network.dyn_peer[295] 	lookupStabilitySig:mean 	0.7870240919292
scalar Network.dyn_peer[295] 	lookupHopsSig:mean 	41.5
scalar Network.dyn_peer[296] 	lookupTimeSig:mean 	2.26
scalar Network.dyn_peer[296] 	lookupStabilitySig:mean 	0.63586523365229
scalar Network.dyn_peer[296] 	lookupHopsSig:mean 	21.8
scalar Network.dyn_peer[297] 	lookupTimeSig:mean 	2.24
scalar Network.dyn_peer[297] 	lookupStabilitySig:mean 	0.57187932431698
scalar Network.dyn_peer[297] 	lookupHopsSig:mean 	21.6
scalar Network.dyn_peer[298] 	lookupTimeSig:mean 	1.9666666666667
scalar Network.dyn_peer[298] 	lookupStabilitySig:mean 	0.95701229417076
scalar Network.dyn_peer[298] 	lookupHopsSig:mean 	18.75
scalar Network.dyn_peer[299] 	lookupTimeSig:mean 	1.7
scalar Network.dyn_peer[299] 	lookupStabilitySig:mean 	0.88061392848165
scalar Network.dyn_peer[299] 	lookupHopsSig:mean 	16.076923076923
scalar Network.dyn_peer[300] 	lookupTimeSig:mean 	1.85
scalar Network.dyn_peer[300] 	lookupStabilitySig:mean 	0.49833603948355
scalar Network.dyn_peer[300] 	lookupHopsSig:mean 	17.75
scalar Network.dyn_peer[301] 	lookupTimeSig:mean 	1.4
scalar Network.dyn_peer[301] 	lookupStabilitySig:mean 	0.44552372395992
scalar Network.dyn_peer[301] 	lookupHopsSig:mean 	13.25
scalar Network.dyn_peer[302] 	lookupTimeSig:mean 	2.3
scalar Network.dyn_peer[302] 	lookupStabilitySig:mean 	0.80769899021834
scalar Network.dyn_peer[302] 	lookupHopsSig:mean 	22.25
scalar Network.dyn_peer[303] 	lookupTimeSig:mean 	2.5
scalar Network.dyn_peer[303] 	lookupStabilitySig:mean 	0.55870235934854
scalar Network.dyn_peer[303] 	lookupHopsSig:mean 	24.2
scalar Network.dyn_peer[304] 	lookupTimeSig:mean 	1.7333333333333
scalar Network.dyn_peer[304] 	lookupStabilitySig:mean 	0.61809948614488
scalar Network.dyn_peer[304] 	lookupHopsSig:mean 	16.5
scalar Network.dyn_peer[305] 	lookupTimeSig:mean 	1.4909090909091
scalar Network.dyn_peer[305] 	lookupStabilitySig:mean 	0.94651316521181
scalar Network.dyn_peer[305] 	lookupHopsSig:mean 	14
scalar Network.dyn_peer[306] 	lookupTimeSig:mean 	1.9666666666667
scalar Network.dyn_peer[306] 	lookupStabilitySig:mean 	0.74585649371147
scalar Network.dyn_peer[306] 	lookupHopsSig:mean 	19
scalar Network.dyn_peer[307] 	lookupTimeSig:mean 	1.88
scalar Network.dyn_peer[307] 	lookupStabilitySig:mean 	0.7044198743999
scalar Network.dyn_peer[307] 	lookupHopsSig:mean 	18
scalar Network.dyn_peer[308] 	lookupTimeSig:mean 	2.125
scalar Network.dyn_peer[308] 	lookupStabilitySig:mean 	0.83443384250859
scalar Network.dyn_peer[308] 	lookupHopsSig:mean 	20.375
scalar Network.dyn_peer[309] 	lookupTimeSig:mean 	2.56
scalar Network.dyn_peer[309] 	lookupStabilitySig:mean 	0.84652195423841
scalar Network.dyn_peer[309] 	lookupHopsSig:mean 	24.8
scalar Network.dyn_peer[310] 	lookupTimeSig:mean 	2.0333333333333
scalar Network.dyn_peer[310] 	lookupStabilitySig:mean 	0.88750499393791
scalar Network.dyn_peer[310] 	lookupHopsSig:mean 	19.5
scalar Network.dyn_peer[311] 	lookupTimeSig:mean 	3.45
scalar Network.dyn_peer[311] 	lookupStabilitySig:mean 	0.91833111643791
scalar Network.dyn_peer[311] 	lookupHopsSig:mean 	33.75
scalar Network.dyn_peer[312] 	lookupTimeSig:mean 	2.225
scalar Network.dyn_peer[312] 	lookupStabilitySig:mean 	0.82935103587806
scalar Network.dyn_peer[312] 	lookupHopsSig:mean 	21.5
scalar Network.dyn_peer[313] 	lookupTimeSig:mean 	1.775
scalar Network.dyn_peer[313] 	lookupStabilitySig:mean 	0.909720232361
scalar Network.dyn_peer[313] 	lookupHopsSig:mean 	16.875
scalar Network.dyn_peer[314] 	lookupTimeSig:mean 	2.675
scalar Network.dyn_peer[314] 	lookupStabilitySig:mean 	0.53794643096626
scalar Network.dyn_peer[314] 	lookupHopsSig:mean 	26
scalar Network.dyn_peer[315] 	lookupTimeSig:mean 	1.84
scalar Network.dyn_peer[315] 	lookupStabilitySig:mean 	0.7299355821684
scalar Network.dyn_peer[315] 	lookupHopsSig:mean 	17.6
scalar Network.dyn_peer[316] 	lookupTimeSig:mean 	2.325
scalar Network.dyn_peer[316] 	lookupStabilitySig:mean 	0.48562002275139
scalar Network.dyn_peer[316] 	lookupHopsSig:mean 	22.5
scalar Network.dyn_peer[317] 	lookupTimeSig:mean 	2.94
scalar Network.dyn_peer[317] 	lookupStabilitySig:mean 	0.90263674352318
scalar Network.dyn_peer[317] 	lookupHopsSig:mean 	28.6
scalar Network.dyn_peer[318] 	lookupTimeSig:mean 	1.4625
scalar Network.dyn_peer[318] 	lookupStabilitySig:mean 	0.88714358233847
scalar Network.dyn_peer[318] 	lookupHopsSig:mean 	13.75
scalar Network.dyn_peer[319] 	lookupTimeSig:mean 	2.3
scalar Network.dyn_peer[319] 	lookupStabilitySig:mean 	0.96389097841457
scalar Network.dyn_peer[319] 	lookupHopsSig:mean 	22.1
scalar Network.dyn_peer[320] 	lookupTimeSig:mean 	2
scalar Network.dyn_peer[320] 	lookupStabilitySig:mean 	0.92441571557096
scalar Network.dyn_peer[320] 	lookupHopsSig:mean 	19.142857142857
scalar Network.dyn_peer[321] 	lookupTimeSig:mean 	2.2
scalar Network.dyn_peer[321] 	lookupStabilitySig:mean 	0.93599738872477
scalar Network.dyn_peer[321] 	lookupHopsSig:mean 	21.142857142857
scalar Network.dyn_peer[322] 	lookupTimeSig:mean 	1.525
scalar Network.dyn_peer[322] 	lookupStabilitySig:mean 	0.34601660445333
scalar Network.dyn_peer[322] 	lookupHopsSig:mean 	14.5
scalar Network.dyn_peer[323] 	lookupTimeSig:mean 	1.6666666666667
scalar Network.dyn_peer[323] 	lookupStabilitySig:mean 	0.31351981560389
scalar Network.dyn_peer[323] 	lookupHopsSig:mean 	16
scalar Network.dyn_peer[324] 	lookupTimeSig:mean 	1.8285714285714
scalar Network.dyn_peer[324] 	lookupStabilitySig:mean 	0.88864957494661
scalar Network.dyn_peer[324] 	lookupHopsSig:mean 	17.428571428571
scalar Network.dyn_peer[325] 	lookupTimeSig:mean 	2.7
scalar Network.dyn_peer[325] 	lookupStabilitySig:mean 	0.60459391772747
scalar Network.dyn_peer[325] 	lookupHopsSig:mean 	26.5
scalar Network.dyn_peer[326] 	lookupTimeSig:mean 	1.3111111111111
scalar Network.dyn_peer[326] 	lookupStabilitySig:mean 	0.90342553342796
scalar Network.dyn_peer[326] 	lookupHopsSig:mean 	12.222222222222
scalar Network.dyn_peer[327] 	lookupTimeSig:mean 	0.73333333333333
scalar Network.dyn_peer[327] 	lookupStabilitySig:mean 	0.58990190581729
scalar Network.dyn_peer[327] 	lookupHopsSig:mean 	6.5
scalar Network.dyn_peer[328] 	lookupTimeSig:mean 	1.6666666666667
scalar Network.dyn_peer[328] 	lookupStabilitySig:mean 	0.56192521626751
scalar Network.dyn_peer[328] 	lookupHopsSig:mean 	16
scalar Network.dyn_peer[329] 	lookupTimeSig:mean 	2.84
scalar Network.dyn_peer[329] 	lookupStabilitySig:mean 	0.84094642642885
scalar Network.dyn_peer[329] 	lookupHopsSig:mean 	27.6
scalar Network.dyn_peer[330] 	lookupTimeSig:mean 	3.275
scalar Network.dyn_peer[330] 	lookupStabilitySig:mean 	0.92413575621322
scalar Network.dyn_peer[330] 	lookupHopsSig:mean 	32
scalar Network.dyn_peer[331] 	lookupTimeSig:mean 	1.8384615384615
scalar Network.dyn_peer[331] 	lookupStabilitySig:mean 	0.93260185173354
scalar Network.dyn_peer[331] 	lookupHopsSig:mean 	17.461538461538
scalar Network.dyn_peer[332] 	lookupTimeSig:mean 	1.5
scalar Network.dyn_peer[332] 	lookupStabilitySig:mean 	0.63641540085276
scalar Network.dyn_peer[332] 	lookupHopsSig:mean 	14.166666666667
scalar Network.dyn_peer[333] 	lookupTimeSig:mean 	3.7
scalar Network.dyn_peer[333] 	lookupStabilitySig:mean 	0.75984666496515
scalar Network.dyn_peer[333] 	lookupHopsSig:mean 	36.5
scalar Network.dyn_peer[334] 	lookupTimeSig:mean 	1.6
scalar Network.dyn_peer[334] 	lookupStabilitySig:mean 	0.53964763879776
scalar Network.dyn_peer[334] 	lookupHopsSig:mean 	15.25
scalar Network.dyn_peer[335] 	lookupTimeSig:mean 	2.0166666666667
scalar Network.dyn_peer[335] 	lookupStabilitySig:mean 	0.61672716711958
scalar Network.dyn_peer[335] 	lookupHopsSig:mean 	19.333333333333
scalar Network.dyn_peer[336] 	lookupTimeSig:mean 	3.2
scalar Network.dyn_peer[336] 	lookupStabilitySig:mean 	0.71872423216701
scalar Network.dyn_peer[336] 	lookupHopsSig:mean 	31.5
scalar Network.dyn_peer[337] 	lookupTimeSig:mean 	1.8285714285714
scalar Network.dyn_peer[337] 	lookupStabilitySig:mean 	0.72989846539817
scalar Network.dyn_peer[337] 	lookupHopsSig:mean 	17.428571428571
scalar Network.dyn_peer[338] 	lookupTimeSig:mean 	2.075
scalar Network.dyn_peer[338] 	lookupStabilitySig:mean 	0.69737364631146
scalar Network.dyn_peer[338] 	lookupHopsSig:mean 	20
scalar Network.dyn_peer[339] 	lookupTimeSig:mean 	1.49
scalar Network.dyn_peer[339] 	lookupStabilitySig:mean 	0.73261226238683
scalar Network.dyn_peer[339] 	lookupHopsSig:mean 	14
scalar Network.dyn_peer[340] 	lookupTimeSig:mean 	3.5
scalar Network.dyn_peer[340] 	lookupStabilitySig:mean 	0.49288426339626
scalar Network.dyn_peer[340] 	lookupHopsSig:mean 	34.5
scalar Network.dyn_peer[341] 	lookupTimeSig:mean 	1.5727272727273
scalar Network.dyn_peer[341] 	lookupStabilitySig:mean 	0.8079156241041
scalar Network.dyn_peer[341] 	lookupHopsSig:mean 	14.818181818182
scalar Network.dyn_peer[342] 	lookupTimeSig:mean 	1.9909090909091
scalar Network.dyn_peer[342] 	lookupStabilitySig:mean 	0.94716842768883
scalar Network.dyn_peer[342] 	lookupHopsSig:mean 	19
scalar Network.dyn_peer[343] 	lookupTimeSig:mean 	1.85
scalar Network.dyn_peer[343] 	lookupStabilitySig:mean 	0.74852403718978
scalar Network.dyn_peer[343] 	lookupHopsSig:mean 	17.75
scalar Network.dyn_peer[344] 	lookupTimeSig:mean 	1.7222222222222
scalar Network.dyn_peer[344] 	lookupStabilitySig:mean 	0.73678923439648
scalar Network.dyn_peer[344] 	lookupHopsSig:mean 	16.333333333333
scalar Network.dyn_peer[345] 	lookupTimeSig:mean 	1.8
scalar Network.dyn_peer[345] 	lookupStabilitySig:mean 	0.86185747480744
scalar Network.dyn_peer[345] 	lookupHopsSig:mean 	17.111111111111
scalar Network.dyn_peer[346] 	lookupTimeSig:mean 	1.8166666666667
scalar Network.dyn_peer[346] 	lookupStabilitySig:mean 	0.75271763435254
scalar Network.dyn_peer[346] 	lookupHopsSig:mean 	17.333333333333
scalar Network.dyn_peer[347] 	lookupTimeSig:mean 	2.75
scalar Network.dyn_peer[347] 	lookupStabilitySig:mean 	0.73640334047377
scalar Network.dyn_peer[347] 	lookupHopsSig:mean 	26.75
scalar Network.dyn_peer[348] 	lookupTimeSig:mean 	3.05
scalar Network.dyn_peer[348] 	lookupStabilitySig:mean 	0.53618422150612
scalar Network.dyn_peer[348] 	lookupHopsSig:mean 	30
scalar Network.dyn_peer[349] 	lookupTimeSig:mean 	1.375
scalar Network.dyn_peer[349] 	lookupStabilitySig:mean 	0.45824722200632
scalar Network.dyn_peer[349] 	lookupHopsSig:mean 	13
scalar Network.dyn_peer[350] 	lookupTimeSig:mean 	2.3
scalar Network.dyn_peer[350] 	lookupStabilitySig:mean 	0.93607228196093
scalar Network.dyn_peer[350] 	lookupHopsSig:mean 	22.142857142857
scalar Network.dyn_peer[351] 	lookupTimeSig:mean 	4.05
scalar Network.dyn_peer[351] 	lookupStabilitySig:mean 	0.77942584082484
scalar Network.dyn_peer[351] 	lookupHopsSig:mean 	40
scalar Network.dyn_peer[352] 	lookupTimeSig:mean 	1.7
scalar Network.dyn_peer[352] 	lookupStabilitySig:mean 	0.75379242949809
scalar Network.dyn_peer[352] 	lookupHopsSig:mean 	16.111111111111
scalar Network.dyn_peer[353] 	lookupTimeSig:mean 	2.3285714285714
scalar Network.dyn_peer[353] 	lookupStabilitySig:mean 	0.88808625271278
scalar Network.dyn_peer[353] 	lookupHopsSig:mean 	22.428571428571
scalar Network.dyn_peer[354] 	lookupTimeSig:mean 	2.6
scalar Network.dyn_peer[354] 	lookupStabilitySig:mean 	0.91459727112669
scalar Network.dyn_peer[354] 	lookupHopsSig:mean 	25.166666666667
scalar Network.dyn_peer[355] 	lookupTimeSig:mean 	1.9333333333333
scalar Network.dyn_peer[355] 	lookupStabilitySig:mean 	0.81559555791318
scalar Network.dyn_peer[355] 	lookupHopsSig:mean 	18.5
scalar Network.dyn_peer[356] 	lookupTimeSig:mean 	1.6666666666667
scalar Network.dyn_peer[356] 	lookupStabilitySig:mean 	0.6176954015779
scalar Network.dyn_peer[356] 	lookupHopsSig:mean 	15.833333333333
scalar Network.dyn_peer[357] 	lookupTimeSig:mean 	1.37
scalar Network.dyn_peer[357] 	lookupStabilitySig:mean 	0.76064762026072
scalar Network.dyn_peer[357] 	lookupHopsSig:mean 	12.8
scalar Network.dyn_peer[358] 	lookupTimeSig:mean 	1.7833333333333
scalar Network.dyn_peer[358] 	lookupStabilitySig:mean 	0.81092081063737
scalar Network.dyn_peer[358] 	lookupHopsSig:mean 	17
scalar Network.dyn_peer[359] 	lookupTimeSig:mean 	1.55
scalar Network.dyn_peer[359] 	lookupStabilitySig:mean 	0.84723062452395
scalar Network.dyn_peer[359] 	lookupHopsSig:mean 	14.625
scalar Network.dyn_peer[360] 	lookupTimeSig:mean 	1.9555555555556
scalar Network.dyn_peer[360] 	lookupStabilitySig:mean 	0.92128518814894
scalar Network.dyn_peer[360] 	lookupHopsSig:mean 	18.666666666667
scalar Network.dyn_peer[361] 	lookupTimeSig:mean 	1.275
scalar Network.dyn_peer[361] 	lookupStabilitySig:mean 	0.43737277388573
scalar Network.dyn_peer[361] 	lookupHopsSig:mean 	12
scalar Network.dyn_peer[362] 	lookupTimeSig:mean 	3
scalar Network.dyn_peer[362] 	lookupStabilitySig:mean 	0.25359113514423
scalar Network.dyn_peer[362] 	lookupHopsSig:mean 	29.5
scalar Network.dyn_peer[363] 	lookupTimeSig:mean 	1.5555555555556
scalar Network.dyn_peer[363] 	lookupStabilitySig:mean 	0.91086588168724
scalar Network.dyn_peer[363] 	lookupHopsSig:mean 	14.666666666667
scalar Network.dyn_peer[364] 	lookupTimeSig:mean 	1.575
scalar Network.dyn_peer[364] 	lookupStabilitySig:mean 	0.36441244930029
scalar Network.dyn_peer[364] 	lookupHopsSig:mean 	15
scalar Network.dyn_peer[365] 	lookupTimeSig:mean 	1.76
scalar Network.dyn_peer[365] 	lookupStabilitySig:mean 	0.66320622600615
scalar Network.dyn_peer[365] 	lookupHopsSig:mean 	16.8
scalar Network.dyn_peer[366] 	lookupTimeSig:mean 	1.8666666666667
scalar Network.dyn_peer[366] 	lookupStabilitySig:mean 	0.74288032452265
scalar Network.dyn_peer[366] 	lookupHopsSig:mean 	18
scalar Network.dyn_peer[367] 	lookupTimeSig:mean 	1.84
scalar Network.dyn_peer[367] 	lookupStabilitySig:mean 	0.79778517633677
scalar Network.dyn_peer[367] 	lookupHopsSig:mean 	17.6
scalar Network.dyn_peer[368] 	lookupTimeSig:mean 	2.1
scalar Network.dyn_peer[368] 	lookupStabilitySig:mean 	0.78286865875125
scalar Network.dyn_peer[368] 	lookupHopsSig:mean 	20.2
scalar Network.dyn_peer[369] 	lookupTimeSig:mean 	3.1
scalar Network.dyn_peer[369] 	lookupStabilitySig:mean 	0.6501922942698
scalar Network.dyn_peer[369] 	lookupHopsSig:mean 	30.5
scalar Network.dyn_peer[370] 	lookupTimeSig:mean 	3.3
scalar Network.dyn_peer[370] 	lookupStabilitySig:mean 	0.5663792937994
scalar Network.dyn_peer[370] 	lookupHopsSig:mean 	32.5
scalar Network.dyn_peer[371] 	lookupTimeSig:mean 	4
scalar Network.dyn_peer[371] 	lookupStabilitySig:mean 	0.85490787308663
scalar Network.dyn_peer[371] 	lookupHopsSig:mean 	39.5
scalar Network.dyn_peer[372] 	lookupTimeSig:mean 	2.0666666666667
scalar Network.dyn_peer[372] 	lookupStabilitySig:mean 	0.78938903411229
scalar Network.dyn_peer[372] 	lookupHopsSig:mean 	20
scalar Network.dyn_peer[373] 	lookupTimeSig:mean 	2.32
scalar Network.dyn_peer[373] 	lookupStabilitySig:mean 	0.86854699701071
scalar Network.dyn_peer[373] 	lookupHopsSig:mean 	22.4
scalar Network.dyn_peer[374] 	lookupTimeSig:mean 	1.86
scalar Network.dyn_peer[374] 	lookupStabilitySig:mean 	0.95049580903724
scalar Network.dyn_peer[374] 	lookupHopsSig:mean 	17.7
scalar Network.dyn_peer[375] 	lookupTimeSig:mean 	2.2
scalar Network.dyn_peer[375] 	lookupStabilitySig:mean 	0.17640450596809
scalar Network.dyn_peer[375] 	lookupHopsSig:mean 	21.5
scalar Network.dyn_peer[376] 	lookupTimeSig:mean 	2.7714285714286
scalar Network.dyn_peer[376] 	lookupStabilitySig:mean 	0.9574426850304
scalar Network.dyn_peer[376] 	lookupHopsSig:mean 	26.857142857143
scalar Network.dyn_peer[377] 	lookupTimeSig:mean 	1.0666666666667
scalar Network.dyn_peer[377] 	lookupStabilitySig:mean 	0.44867725421985
scalar Network.dyn_peer[377] 	lookupHopsSig:mean 	10
scalar Network.dyn_peer[378] 	lookupTimeSig:mean 	1.4454545454545
scalar Network.dyn_peer[378] 	lookupStabilitySig:mean 	0.87466037963432
scalar Network.dyn_peer[378] 	lookupHopsSig:mean 	13.545454545455
scalar Network.dyn_peer[379] 	lookupTimeSig:mean 	0.87777777777778
scalar Network.dyn_peer[379] 	lookupStabilitySig:mean 	0.72927334863279
scalar Network.dyn_peer[379] 	lookupHopsSig:mean 	7.8888888888889
scalar Network.dyn_peer[380] 	lookupTimeSig:mean 	1.725
scalar Network.dyn_peer[380] 	lookupStabilitySig:mean 	0.67915965989232
scalar Network.dyn_peer[380] 	lookupHopsSig:mean 	16.5
scalar Network.dyn_peer[381] 	lookupTimeSig:mean 	2.3
scalar Network.dyn_peer[381] 	lookupStabilitySig:mean 	0.72515866230242
scalar Network.dyn_peer[381] 	lookupHopsSig:mean 	22.125
scalar Network.dyn_peer[382] 	lookupTimeSig:mean 	1.95
scalar Network.dyn_peer[382] 	lookupStabilitySig:mean 	0.77124580430488
scalar Network.dyn_peer[382] 	lookupHopsSig:mean 	18.666666666667
scalar Network.dyn_peer[383] 	lookupTimeSig:mean 	1.7545454545455
scalar Network.dyn_peer[383] 	lookupStabilitySig:mean 	0.79712610505521
scalar Network.dyn_peer[383] 	lookupHopsSig:mean 	16.636363636364
scalar Network.dyn_peer[384] 	lookupTimeSig:mean 	3.125
scalar Network.dyn_peer[384] 	lookupStabilitySig:mean 	0.83892247220501
scalar Network.dyn_peer[384] 	lookupHopsSig:mean 	30.5
scalar Network.dyn_peer[385] 	lookupTimeSig:mean 	1.96
scalar Network.dyn_peer[385] 	lookupStabilitySig:mean 	0.75362963192165
scalar Network.dyn_peer[385] 	lookupHopsSig:mean 	18.8
scalar Network.dyn_peer[386] 	lookupTimeSig:mean 	2.5
scalar Network.dyn_peer[386] 	lookupStabilitySig:mean 	0.37634963790576
scalar Network.dyn_peer[386] 	lookupHopsSig:mean 	24.333333333333
scalar Network.dyn_peer[387] 	lookupTimeSig:mean 	1.1333333333333
scalar Network.dyn_peer[387] 	lookupStabilitySig:mean 	0.29375453293324
scalar Network.dyn_peer[387] 	lookupHopsSig:mean 	10.666666666667
scalar Network.dyn_peer[388] 	lookupTimeSig:mean 	1.8
scalar Network.dyn_peer[388] 	lookupStabilitySig:mean 	0.46027453802526
scalar Network.dyn_peer[388] 	lookupHopsSig:mean 	17.25
scalar Network.dyn_peer[389] 	lookupTimeSig:mean 	2.14
scalar Network.dyn_peer[389] 	lookupStabilitySig:mean 	0.61978935077786
scalar Network.dyn_peer[389] 	lookupHopsSig:mean 	20.6
scalar Network.dyn_peer[390] 	lookupTimeSig:mean 	2.6333333333333
scalar Network.dyn_peer[390] 	lookupStabilitySig:mean 	0.96116669351856
scalar Network.dyn_peer[390] 	lookupHopsSig:mean 	25.444444444444
scalar Network.dyn_peer[391] 	lookupTimeSig:mean 	1.8875
scalar Network.dyn_peer[391] 	lookupStabilitySig:mean 	0.73872509424109
scalar Network.dyn_peer[391] 	lookupHopsSig:mean 	18
scalar Network.dyn_peer[392] 	lookupTimeSig:mean 	2.725
scalar Network.dyn_peer[392] 	lookupStabilitySig:mean 	0.73813895508647
scalar Network.dyn_peer[392] 	lookupHopsSig:mean 	26.5
scalar Network.dyn_peer[393] 	lookupTimeSig:mean 	1.8
scalar Network.dyn_peer[393] 	lookupStabilitySig:mean 	0.37382446974516
scalar Network.dyn_peer[393] 	lookupHopsSig:mean 	17.5
scalar Network.dyn_peer[394] 	lookupTimeSig:mean 	2.6
scalar Network.dyn_peer[394] 	lookupStabilitySig:mean 	0.55402930825949
scalar Network.dyn_peer[394] 	lookupHopsSig:mean 	25.5
scalar Network.dyn_peer[395] 	lookupTimeSig:mean 	1.6833333333333
scalar Network.dyn_peer[395] 	lookupStabilitySig:mean 	0.66089649995168
scalar Network.dyn_peer[395] 	lookupHopsSig:mean 	16
scalar Network.dyn_peer[396] 	lookupTimeSig:mean 	3.6666666666667
scalar Network.dyn_peer[396] 	lookupStabilitySig:mean 	0.80394557863474
scalar Network.dyn_peer[396] 	lookupHopsSig:mean 	36
scalar Network.dyn_peer[397] 	lookupTimeSig:mean 	1.9333333333333
scalar Network.dyn_peer[397] 	lookupStabilitySig:mean 	0.4286368911465
scalar Network.dyn_peer[397] 	lookupHopsSig:mean 	18.666666666667
scalar Network.dyn_peer[398] 	lookupTimeSig:mean 	0.93333333333333
scalar Network.dyn_peer[398] 	lookupStabilitySig:mean 	0.26212120056152
scalar Network.dyn_peer[398] 	lookupHopsSig:mean 	8.6666666666667
scalar Network.dyn_peer[399] 	lookupTimeSig:mean 	2.475
scalar Network.dyn_peer[399] 	lookupStabilitySig:mean 	0.72208756301552
scalar Network.dyn_peer[399] 	lookupHopsSig:mean 	24
scalar Network.dyn_peer[400] 	lookupTimeSig:mean 	1.7727272727273
scalar Network.dyn_peer[400] 	lookupStabilitySig:mean 	0.95802654732357
scalar Network.dyn_peer[400] 	lookupHopsSig:mean 	16.818181818182
scalar Network.dyn_peer[401] 	lookupTimeSig:mean 	6.25
scalar Network.dyn_peer[401] 	lookupStabilitySig:mean 	0.77156235650182
scalar Network.dyn_peer[401] 	lookupHopsSig:mean 	62
scalar Network.dyn_peer[402] 	lookupTimeSig:mean 	2.4833333333333
scalar Network.dyn_peer[402] 	lookupStabilitySig:mean 	0.88633869898816
scalar Network.dyn_peer[402] 	lookupHopsSig:mean 	24
scalar Network.dyn_peer[403] 	lookupTimeSig:mean 	1.5
scalar Network.dyn_peer[403] 	lookupStabilitySig:mean 	0.64053801695506
scalar Network.dyn_peer[403] 	lookupHopsSig:mean 	14.333333333333
scalar Network.dyn_peer[404] 	lookupTimeSig:mean 	2.75
scalar Network.dyn_peer[404] 	lookupStabilitySig:mean 	0.67363485903479
scalar Network.dyn_peer[404] 	lookupHopsSig:mean 	26.666666666667
scalar Network.dyn_peer[405] 	lookupTimeSig:mean 	1.05
scalar Network.dyn_peer[405] 	lookupStabilitySig:mean 	0.63056431338191
scalar Network.dyn_peer[405] 	lookupHopsSig:mean 	9.6666666666667
scalar Network.dyn_peer[406] 	lookupTimeSig:mean 	2.55
scalar Network.dyn_peer[406] 	lookupStabilitySig:mean 	0.61249999701977
scalar Network.dyn_peer[406] 	lookupHopsSig:mean 	25
scalar Network.dyn_peer[407] 	lookupTimeSig:mean 	2.32
scalar Network.dyn_peer[407] 	lookupStabilitySig:mean 	0.55610001310706
scalar Network.dyn_peer[407] 	lookupHopsSig:mean 	22.4
scalar Network.dyn_peer[408] 	lookupTimeSig:mean 	1.2333333333333
scalar Network.dyn_peer[408] 	lookupStabilitySig:mean 	0.37736705938975
scalar Network.dyn_peer[408] 	lookupHopsSig:mean 	11.666666666667
scalar Network.dyn_peer[409] 	lookupTimeSig:mean 	1.3666666666667
scalar Network.dyn_peer[409] 	lookupStabilitySig:mean 	0.84888541267719
scalar Network.dyn_peer[409] 	lookupHopsSig:mean 	12.75
scalar Network.dyn_peer[410] 	lookupTimeSig:mean 	1.525
scalar Network.dyn_peer[410] 	lookupStabilitySig:mean 	0.73692371975631
scalar Network.dyn_peer[410] 	lookupHopsSig:mean 	14.5
scalar Network.dyn_peer[411] 	lookupTimeSig:mean 	1.775
scalar Network.dyn_peer[411] 	lookupStabilitySig:mean 	0.85297845536843
scalar Network.dyn_peer[411] 	lookupHopsSig:mean 	16.875
scalar Network.dyn_peer[412] 	lookupTimeSig:mean 	1.2444444444444
scalar Network.dyn_peer[412] 	lookupStabilitySig:mean 	0.788543991848
scalar Network.dyn_peer[412] 	lookupHopsSig:mean 	11.555555555556
scalar Network.dyn_peer[413] 	lookupTimeSig:mean 	0.88
scalar Network.dyn_peer[413] 	lookupStabilitySig:mean 	0.56726141385734
scalar Network.dyn_peer[413] 	lookupHopsSig:mean 	8
scalar Network.dyn_peer[414] 	lookupTimeSig:mean 	3.1
scalar Network.dyn_peer[414] 	lookupStabilitySig:mean 	0.58519387245178
scalar Network.dyn_peer[414] 	lookupHopsSig:mean 	30.333333333333
scalar Network.dyn_peer[415] 	lookupTimeSig:mean 	1.5333333333333
scalar Network.dyn_peer[415] 	lookupStabilitySig:mean 	0.72390214415888
scalar Network.dyn_peer[415] 	lookupHopsSig:mean 	14.666666666667
scalar Network.dyn_peer[416] 	lookupTimeSig:mean 	2.1142857142857
scalar Network.dyn_peer[416] 	lookupStabilitySig:mean 	0.92839251112725
scalar Network.dyn_peer[416] 	lookupHopsSig:mean 	20.285714285714
scalar Network.dyn_peer[417] 	lookupTimeSig:mean 	2.475
scalar Network.dyn_peer[417] 	lookupStabilitySig:mean 	0.60227093286812
scalar Network.dyn_peer[417] 	lookupHopsSig:mean 	24
scalar Network.dyn_peer[418] 	lookupTimeSig:mean 	1.2
scalar Network.dyn_peer[418] 	lookupStabilitySig:mean 	0.43197864852846
scalar Network.dyn_peer[418] 	lookupHopsSig:mean 	11.25
scalar Network.dyn_peer[419] 	lookupTimeSig:mean 	1.6
scalar Network.dyn_peer[419] 	lookupStabilitySig:mean 	0.44840242154896
scalar Network.dyn_peer[419] 	lookupHopsSig:mean 	15.25
scalar Network.dyn_peer[420] 	lookupTimeSig:mean 	2.0375
scalar Network.dyn_peer[420] 	lookupStabilitySig:mean 	0.76058967539575
scalar Network.dyn_peer[420] 	lookupHopsSig:mean 	19.5
scalar Network.dyn_peer[421] 	lookupTimeSig:mean 	1.7083333333333
scalar Network.dyn_peer[421] 	lookupStabilitySig:mean 	0.8851607721881
scalar Network.dyn_peer[421] 	lookupHopsSig:mean 	16.166666666667
[...]
scalar Network.dyn_peer[894] 	lookupHopsSig:mean 	20.857142857143
scalar Network.dyn_peer[895] 	lookupTimeSig:mean 	2.7
scalar Network.dyn_peer[895] 	lookupStabilitySig:mean 	0.83631304185838
scalar Network.dyn_peer[895] 	lookupHopsSig:mean 	26.25
scalar Network.dyn_peer[896] 	lookupTimeSig:mean 	1.7666666666667
scalar Network.dyn_peer[896] 	lookupStabilitySig:mean 	0.53862762947877
scalar Network.dyn_peer[896] 	lookupHopsSig:mean 	17
scalar Network.dyn_peer[897] 	lookupTimeSig:mean 	2.98
scalar Network.dyn_peer[897] 	lookupStabilitySig:mean 	0.80115049481392
scalar Network.dyn_peer[897] 	lookupHopsSig:mean 	29
scalar Network.dyn_peer[898] 	lookupTimeSig:mean 	1.3714285714286
scalar Network.dyn_peer[898] 	lookupStabilitySig:mean 	0.83998901184116
scalar Network.dyn_peer[898] 	lookupHopsSig:mean 	12.857142857143
scalar Network.dyn_peer[899] 	lookupTimeSig:mean 	2.04
scalar Network.dyn_peer[899] 	lookupStabilitySig:mean 	0.87515879571438
scalar Network.dyn_peer[899] 	lookupHopsSig:mean 	19.6
scalar Network.dyn_peer[900] 	lookupTimeSig:mean 	2.1
scalar Network.dyn_peer[900] 	lookupStabilitySig:mean 	0.93058449952778
scalar Network.dyn_peer[900] 	lookupHopsSig:mean 	20.090909090909
scalar Network.dyn_peer[901] 	lookupTimeSig:mean 	1.55
scalar Network.dyn_peer[901] 	lookupStabilitySig:mean 	0.837077928707
scalar Network.dyn_peer[901] 	lookupHopsSig:mean 	14.666666666667
scalar Network.dyn_peer[902] 	lookupTimeSig:mean 	2.5666666666667
scalar Network.dyn_peer[902] 	lookupStabilitySig:mean 	0.50520699719588
scalar Network.dyn_peer[902] 	lookupHopsSig:mean 	25
scalar Network.dyn_peer[903] 	lookupTimeSig:mean 	3.5
scalar Network.dyn_peer[903] 	lookupStabilitySig:mean 	0.54811020195484
scalar Network.dyn_peer[903] 	lookupHopsSig:mean 	34.5
scalar Network.dyn_peer[904] 	lookupTimeSig:mean 	2.525
scalar Network.dyn_peer[904] 	lookupStabilitySig:mean 	0.88402160070837
scalar Network.dyn_peer[904] 	lookupHopsSig:mean 	24.5
scalar Network.dyn_peer[905] 	lookupTimeSig:mean 	2.1875
scalar Network.dyn_peer[905] 	lookupStabilitySig:mean 	0.88768441439606
scalar Network.dyn_peer[905] 	lookupHopsSig:mean 	21
scalar Network.dyn_peer[906] 	lookupTimeSig:mean 	2.1692307692308
scalar Network.dyn_peer[906] 	lookupStabilitySig:mean 	0.9535062293737
scalar Network.dyn_peer[906] 	lookupHopsSig:mean 	20.769230769231
scalar Network.dyn_peer[907] 	lookupTimeSig:mean 	3.6333333333333
scalar Network.dyn_peer[907] 	lookupStabilitySig:mean 	0.80256068954865
scalar Network.dyn_peer[907] 	lookupHopsSig:mean 	35.666666666667
scalar Network.dyn_peer[908] 	lookupTimeSig:mean 	1.34
scalar Network.dyn_peer[908] 	lookupStabilitySig:mean 	0.69538195505738
scalar Network.dyn_peer[908] 	lookupHopsSig:mean 	12.6
scalar Network.dyn_peer[909] 	lookupTimeSig:mean 	2.15
scalar Network.dyn_peer[909] 	lookupStabilitySig:mean 	0.79639972187579
scalar Network.dyn_peer[909] 	lookupHopsSig:mean 	20.75
scalar Network.dyn_peer[910] 	lookupTimeSig:mean 	1.8
scalar Network.dyn_peer[910] 	lookupStabilitySig:mean 	0.85026104437808
scalar Network.dyn_peer[910] 	lookupHopsSig:mean 	17.166666666667
scalar Network.dyn_peer[911] 	lookupTimeSig:mean 	2.025
scalar Network.dyn_peer[911] 	lookupStabilitySig:mean 	0.90142899053171
scalar Network.dyn_peer[911] 	lookupHopsSig:mean 	19.375
scalar Network.dyn_peer[912] 	lookupTimeSig:mean 	2.4
scalar Network.dyn_peer[912] 	lookupStabilitySig:mean 	0.92249067447015
scalar Network.dyn_peer[912] 	lookupHopsSig:mean 	23.142857142857
scalar Network.dyn_peer[913] 	lookupTimeSig:mean 	3.1666666666667
scalar Network.dyn_peer[913] 	lookupStabilitySig:mean 	0.72424850116173
scalar Network.dyn_peer[913] 	lookupHopsSig:mean 	31
scalar Network.dyn_peer[914] 	lookupTimeSig:mean 	3.18
scalar Network.dyn_peer[914] 	lookupStabilitySig:mean 	0.89119778703898
scalar Network.dyn_peer[914] 	lookupHopsSig:mean 	31
scalar Network.dyn_peer[915] 	lookupTimeSig:mean 	1.4666666666667
scalar Network.dyn_peer[915] 	lookupStabilitySig:mean 	0.80712946131825
scalar Network.dyn_peer[915] 	lookupHopsSig:mean 	13.833333333333
scalar Network.dyn_peer[916] 	lookupTimeSig:mean 	1.875
scalar Network.dyn_peer[916] 	lookupStabilitySig:mean 	0.61409863084555
scalar Network.dyn_peer[916] 	lookupHopsSig:mean 	18
scalar Network.dyn_peer[917] 	lookupTimeSig:mean 	2.6
scalar Network.dyn_peer[917] 	lookupStabilitySig:mean 	0.96621610485535
scalar Network.dyn_peer[917] 	lookupHopsSig:mean 	25.111111111111
scalar Network.dyn_peer[918] 	lookupTimeSig:mean 	1.7363636363636
scalar Network.dyn_peer[918] 	lookupStabilitySig:mean 	0.925197372721
scalar Network.dyn_peer[918] 	lookupHopsSig:mean 	16.454545454545
scalar Network.dyn_peer[919] 	lookupTimeSig:mean 	2.12
scalar Network.dyn_peer[919] 	lookupStabilitySig:mean 	0.71593270823359
scalar Network.dyn_peer[919] 	lookupHopsSig:mean 	20.4
scalar Network.dyn_peer[920] 	lookupTimeSig:mean 	2.6875
scalar Network.dyn_peer[920] 	lookupStabilitySig:mean 	0.93497847998515
scalar Network.dyn_peer[920] 	lookupHopsSig:mean 	26
scalar Network.dyn_peer[921] 	lookupTimeSig:mean 	2.2545454545455
scalar Network.dyn_peer[921] 	lookupStabilitySig:mean 	0.83738672394644
scalar Network.dyn_peer[921] 	lookupHopsSig:mean 	21.636363636364
scalar Network.dyn_peer[922] 	lookupTimeSig:mean 	2.62
scalar Network.dyn_peer[922] 	lookupStabilitySig:mean 	0.89319774089381
scalar Network.dyn_peer[922] 	lookupHopsSig:mean 	25.4
scalar Network.dyn_peer[923] 	lookupTimeSig:mean 	1.3571428571429
scalar Network.dyn_peer[923] 	lookupStabilitySig:mean 	0.83794157938766
scalar Network.dyn_peer[923] 	lookupHopsSig:mean 	12.714285714286
scalar Network.dyn_peer[924] 	lookupTimeSig:mean 	1.4272727272727
scalar Network.dyn_peer[924] 	lookupStabilitySig:mean 	0.84944387212057
scalar Network.dyn_peer[924] 	lookupHopsSig:mean 	13.363636363636
scalar Network.dyn_peer[925] 	lookupTimeSig:mean 	1.3833333333333
scalar Network.dyn_peer[925] 	lookupStabilitySig:mean 	0.819028306442
scalar Network.dyn_peer[925] 	lookupHopsSig:mean 	13
scalar Network.dyn_peer[926] 	lookupTimeSig:mean 	2.225
scalar Network.dyn_peer[926] 	lookupStabilitySig:mean 	0.80157272005454
scalar Network.dyn_peer[926] 	lookupHopsSig:mean 	21.5
scalar Network.dyn_peer[927] 	lookupTimeSig:mean 	1.7444444444444
scalar Network.dyn_peer[927] 	lookupStabilitySig:mean 	0.82532025066515
scalar Network.dyn_peer[927] 	lookupHopsSig:mean 	16.555555555556
scalar Network.dyn_peer[928] 	lookupTimeSig:mean 	1.36
scalar Network.dyn_peer[928] 	lookupStabilitySig:mean 	0.74527289606631
scalar Network.dyn_peer[928] 	lookupHopsSig:mean 	12.8
scalar Network.dyn_peer[929] 	lookupTimeSig:mean 	2.32
scalar Network.dyn_peer[929] 	lookupStabilitySig:mean 	0.80125968530774
scalar Network.dyn_peer[929] 	lookupHopsSig:mean 	22.4
scalar Network.dyn_peer[930] 	lookupTimeSig:mean 	1.7
scalar Network.dyn_peer[930] 	lookupStabilitySig:mean 	0.3839285671711
scalar Network.dyn_peer[930] 	lookupHopsSig:mean 	16.5
scalar Network.dyn_peer[931] 	lookupTimeSig:mean 	2.6
scalar Network.dyn_peer[931] 	lookupStabilitySig:mean 	0.77824045717716
scalar Network.dyn_peer[931] 	lookupHopsSig:mean 	25.333333333333
scalar Network.dyn_peer[932] 	lookupTimeSig:mean 	2.55
scalar Network.dyn_peer[932] 	lookupStabilitySig:mean 	0.74668966885656
scalar Network.dyn_peer[932] 	lookupHopsSig:mean 	24.75
scalar Network.dyn_peer[933] 	lookupTimeSig:mean 	2.2
scalar Network.dyn_peer[933] 	lookupStabilitySig:mean 	0.90815198408174
scalar Network.dyn_peer[933] 	lookupHopsSig:mean 	21.142857142857
scalar Network.dyn_peer[934] 	lookupTimeSig:mean 	3.25
scalar Network.dyn_peer[934] 	lookupStabilitySig:mean 	0.72702753543854
scalar Network.dyn_peer[934] 	lookupHopsSig:mean 	32
scalar Network.dyn_peer[935] 	lookupTimeSig:mean 	1.94
scalar Network.dyn_peer[935] 	lookupStabilitySig:mean 	0.66342875063419
scalar Network.dyn_peer[935] 	lookupHopsSig:mean 	18.6
scalar Network.dyn_peer[936] 	lookupTimeSig:mean 	1.15
scalar Network.dyn_peer[936] 	lookupStabilitySig:mean 	0.81213770993054
scalar Network.dyn_peer[936] 	lookupHopsSig:mean 	10.75
scalar Network.dyn_peer[937] 	lookupTimeSig:mean 	0.93333333333333
scalar Network.dyn_peer[937] 	lookupStabilitySig:mean 	0.46876055002213
scalar Network.dyn_peer[937] 	lookupHopsSig:mean 	8.6666666666667
scalar Network.dyn_peer[938] 	lookupTimeSig:mean 	2.0666666666667
scalar Network.dyn_peer[938] 	lookupStabilitySig:mean 	0.73237627372146
scalar Network.dyn_peer[938] 	lookupHopsSig:mean 	20
scalar Network.dyn_peer[939] 	lookupTimeSig:mean 	0.8875
scalar Network.dyn_peer[939] 	lookupStabilitySig:mean 	0.81237600324675
scalar Network.dyn_peer[939] 	lookupHopsSig:mean 	8
scalar Network.dyn_peer[940] 	lookupTimeSig:mean 	2.15
scalar Network.dyn_peer[940] 	lookupStabilitySig:mean 	0.63243242353201
scalar Network.dyn_peer[940] 	lookupHopsSig:mean 	21
scalar Network.dyn_peer[941] 	lookupTimeSig:mean 	1.875
scalar Network.dyn_peer[941] 	lookupStabilitySig:mean 	0.8078416660428
scalar Network.dyn_peer[941] 	lookupHopsSig:mean 	18
scalar Network.dyn_peer[942] 	lookupTimeSig:mean 	2.0285714285714
scalar Network.dyn_peer[942] 	lookupStabilitySig:mean 	0.92152143881789
scalar Network.dyn_peer[942] 	lookupHopsSig:mean 	19.428571428571
scalar Network.dyn_peer[943] 	lookupTimeSig:mean 	2.1285714285714
scalar Network.dyn_peer[943] 	lookupStabilitySig:mean 	0.9025167869404
scalar Network.dyn_peer[943] 	lookupHopsSig:mean 	20.428571428571
scalar Network.dyn_peer[944] 	lookupTimeSig:mean 	1.5428571428571
scalar Network.dyn_peer[944] 	lookupStabilitySig:mean 	0.90462914075969
scalar Network.dyn_peer[944] 	lookupHopsSig:mean 	14.571428571429
scalar Network.dyn_peer[945] 	lookupTimeSig:mean 	3.45
scalar Network.dyn_peer[945] 	lookupStabilitySig:mean 	0.45318100601435
scalar Network.dyn_peer[945] 	lookupHopsSig:mean 	34
scalar Network.dyn_peer[946] 	lookupTimeSig:mean 	0.94
scalar Network.dyn_peer[946] 	lookupStabilitySig:mean 	0.710942838341
scalar Network.dyn_peer[946] 	lookupHopsSig:mean 	8.6
scalar Network.dyn_peer[947] 	lookupTimeSig:mean 	1.25
scalar Network.dyn_peer[947] 	lookupStabilitySig:mean 	0.80819078721106
scalar Network.dyn_peer[947] 	lookupHopsSig:mean 	11.666666666667
scalar Network.dyn_peer[948] 	lookupTimeSig:mean 	1.5857142857143
scalar Network.dyn_peer[948] 	lookupStabilitySig:mean 	0.79004460400237
scalar Network.dyn_peer[948] 	lookupHopsSig:mean 	15
scalar Network.dyn_peer[949] 	lookupTimeSig:mean 	2.5333333333333
scalar Network.dyn_peer[949] 	lookupStabilitySig:mean 	0.89257456486424
scalar Network.dyn_peer[949] 	lookupHopsSig:mean 	24.5
scalar Network.dyn_peer[950] 	lookupTimeSig:mean 	2.1
scalar Network.dyn_peer[950] 	lookupStabilitySig:mean 	0.82398815080523
scalar Network.dyn_peer[950] 	lookupHopsSig:mean 	20.25
scalar Network.dyn_peer[951] 	lookupTimeSig:mean 	0.975
scalar Network.dyn_peer[951] 	lookupStabilitySig:mean 	0.59481884166598
scalar Network.dyn_peer[951] 	lookupHopsSig:mean 	9
scalar Network.dyn_peer[952] 	lookupTimeSig:mean 	2.175
scalar Network.dyn_peer[952] 	lookupStabilitySig:mean 	0.95996032276889
scalar Network.dyn_peer[952] 	lookupHopsSig:mean 	20.875
scalar Network.dyn_peer[953] 	lookupTimeSig:mean 	2.2444444444444
scalar Network.dyn_peer[953] 	lookupStabilitySig:mean 	0.94874575703094
scalar Network.dyn_peer[953] 	lookupHopsSig:mean 	21.555555555556
scalar Network.dyn_peer[954] 	lookupTimeSig:mean 	0.95
scalar Network.dyn_peer[954] 	lookupStabilitySig:mean 	0.77509261202067
scalar Network.dyn_peer[954] 	lookupHopsSig:mean 	8.75
scalar Network.dyn_peer[955] 	lookupTimeSig:mean 	1.3230769230769
scalar Network.dyn_peer[955] 	lookupStabilitySig:mean 	0.9268897815894
scalar Network.dyn_peer[955] 	lookupHopsSig:mean 	12.307692307692
scalar Network.dyn_peer[956] 	lookupTimeSig:mean 	4.35
scalar Network.dyn_peer[956] 	lookupStabilitySig:mean 	0.84424180351198
scalar Network.dyn_peer[956] 	lookupHopsSig:mean 	43
scalar Network.dyn_peer[957] 	lookupTimeSig:mean 	1.4875
scalar Network.dyn_peer[957] 	lookupStabilitySig:mean 	0.76353017560905
scalar Network.dyn_peer[957] 	lookupHopsSig:mean 	14
scalar Network.dyn_peer[958] 	lookupTimeSig:mean 	2.8
scalar Network.dyn_peer[958] 	lookupStabilitySig:mean 	0.76399896045526
scalar Network.dyn_peer[958] 	lookupHopsSig:mean 	27.333333333333
scalar Network.dyn_peer[959] 	lookupTimeSig:mean 	2.0666666666667
scalar Network.dyn_peer[959] 	lookupStabilitySig:mean 	0.57215912143389
scalar Network.dyn_peer[959] 	lookupHopsSig:mean 	20
scalar Network.dyn_peer[960] 	lookupTimeSig:mean 	1.625
scalar Network.dyn_peer[960] 	lookupStabilitySig:mean 	0.66555265150964
scalar Network.dyn_peer[960] 	lookupHopsSig:mean 	15.5
scalar Network.dyn_peer[961] 	lookupTimeSig:mean 	1.05
scalar Network.dyn_peer[961] 	lookupStabilitySig:mean 	0.82809525169432
scalar Network.dyn_peer[961] 	lookupHopsSig:mean 	9.6666666666667
scalar Network.dyn_peer[962] 	lookupTimeSig:mean 	1.9230769230769
scalar Network.dyn_peer[962] 	lookupStabilitySig:mean 	0.95061075504726
scalar Network.dyn_peer[962] 	lookupHopsSig:mean 	18.307692307692
scalar Network.dyn_peer[963] 	lookupTimeSig:mean 	3.9
scalar Network.dyn_peer[963] 	lookupStabilitySig:mean 	0.56714256107807
scalar Network.dyn_peer[963] 	lookupHopsSig:mean 	38.5
scalar Network.dyn_peer[964] 	lookupTimeSig:mean 	1.8
scalar Network.dyn_peer[964] 	lookupStabilitySig:mean 	0.79808124378324
scalar Network.dyn_peer[964] 	lookupHopsSig:mean 	17.2
scalar Network.dyn_peer[965] 	lookupTimeSig:mean 	2.65
scalar Network.dyn_peer[965] 	lookupStabilitySig:mean 	0.91189382062294
scalar Network.dyn_peer[965] 	lookupHopsSig:mean 	25.75
scalar Network.dyn_peer[966] 	lookupTimeSig:mean 	2.05
scalar Network.dyn_peer[966] 	lookupStabilitySig:mean 	0.89196561509743
scalar Network.dyn_peer[966] 	lookupHopsSig:mean 	19.666666666667
scalar Network.dyn_peer[967] 	lookupTimeSig:mean 	1.6444444444444
scalar Network.dyn_peer[967] 	lookupStabilitySig:mean 	0.91085529213564
scalar Network.dyn_peer[967] 	lookupHopsSig:mean 	15.555555555556
scalar Network.dyn_peer[968] 	lookupTimeSig:mean 	1.65
scalar Network.dyn_peer[968] 	lookupStabilitySig:mean 	0.55394525080919
scalar Network.dyn_peer[968] 	lookupHopsSig:mean 	16
scalar Network.dyn_peer[969] 	lookupTimeSig:mean 	2.1
scalar Network.dyn_peer[969] 	lookupStabilitySig:mean 	0.91439179178061
scalar Network.dyn_peer[969] 	lookupHopsSig:mean 	20.142857142857
scalar Network.dyn_peer[970] 	lookupTimeSig:mean 	1.35
scalar Network.dyn_peer[970] 	lookupStabilitySig:mean 	0.33333332836628
scalar Network.dyn_peer[970] 	lookupHopsSig:mean 	13
scalar Network.dyn_peer[971] 	lookupTimeSig:mean 	2.2
scalar Network.dyn_peer[971] 	lookupStabilitySig:mean 	0.77551600337029
scalar Network.dyn_peer[971] 	lookupHopsSig:mean 	21.25
scalar Network.dyn_peer[972] 	lookupTimeSig:mean 	1.95
scalar Network.dyn_peer[972] 	lookupStabilitySig:mean 	0.85507804946974
scalar Network.dyn_peer[972] 	lookupHopsSig:mean 	18.75
scalar Network.dyn_peer[973] 	lookupTimeSig:mean 	2.5166666666667
scalar Network.dyn_peer[973] 	lookupStabilitySig:mean 	0.92054397046256
scalar Network.dyn_peer[973] 	lookupHopsSig:mean 	24.333333333333
scalar Network.dyn_peer[974] 	lookupTimeSig:mean 	4.2666666666667
scalar Network.dyn_peer[974] 	lookupStabilitySig:mean 	0.88848964187006
scalar Network.dyn_peer[974] 	lookupHopsSig:mean 	42
scalar Network.dyn_peer[975] 	lookupTimeSig:mean 	2.06
scalar Network.dyn_peer[975] 	lookupStabilitySig:mean 	0.75278384201229
scalar Network.dyn_peer[975] 	lookupHopsSig:mean 	19.8
scalar Network.dyn_peer[976] 	lookupTimeSig:mean 	3.6333333333333
scalar Network.dyn_peer[976] 	lookupStabilitySig:mean 	0.8508591838181
scalar Network.dyn_peer[976] 	lookupHopsSig:mean 	35.666666666667
scalar Network.dyn_peer[977] 	lookupTimeSig:mean 	2.3857142857143
scalar Network.dyn_peer[977] 	lookupStabilitySig:mean 	0.90817222039082
scalar Network.dyn_peer[977] 	lookupHopsSig:mean 	23
scalar Network.dyn_peer[978] 	lookupTimeSig:mean 	1.2769230769231
scalar Network.dyn_peer[978] 	lookupStabilitySig:mean 	0.9277137845683
scalar Network.dyn_peer[978] 	lookupHopsSig:mean 	11.846153846154
scalar Network.dyn_peer[979] 	lookupTimeSig:mean 	1.7142857142857
scalar Network.dyn_peer[979] 	lookupStabilitySig:mean 	0.94474035993751
scalar Network.dyn_peer[979] 	lookupHopsSig:mean 	16.285714285714
scalar Network.dyn_peer[980] 	lookupTimeSig:mean 	2.32
scalar Network.dyn_peer[980] 	lookupStabilitySig:mean 	0.90829188749194
scalar Network.dyn_peer[980] 	lookupHopsSig:mean 	22.4
scalar Network.dyn_peer[981] 	lookupTimeSig:mean 	1.925
scalar Network.dyn_peer[981] 	lookupStabilitySig:mean 	0.75541488453746
scalar Network.dyn_peer[981] 	lookupHopsSig:mean 	18.5
scalar Network.dyn_peer[982] 	lookupTimeSig:mean 	3.075
scalar Network.dyn_peer[982] 	lookupStabilitySig:mean 	0.86483270209283
scalar Network.dyn_peer[982] 	lookupHopsSig:mean 	30
scalar Network.dyn_peer[983] 	lookupTimeSig:mean 	2.4
scalar Network.dyn_peer[983] 	lookupStabilitySig:mean 	0.84106935393065
scalar Network.dyn_peer[983] 	lookupHopsSig:mean 	23.2
scalar Network.dyn_peer[984] 	lookupTimeSig:mean 	1.275
scalar Network.dyn_peer[984] 	lookupStabilitySig:mean 	0.63210249505937
scalar Network.dyn_peer[984] 	lookupHopsSig:mean 	12
scalar Network.dyn_peer[985] 	lookupTimeSig:mean 	2.1428571428571
scalar Network.dyn_peer[985] 	lookupStabilitySig:mean 	0.85146377302174
scalar Network.dyn_peer[985] 	lookupHopsSig:mean 	20.571428571429
scalar Network.dyn_peer[986] 	lookupTimeSig:mean 	1.25
scalar Network.dyn_peer[986] 	lookupStabilitySig:mean 	0.65228739008307
scalar Network.dyn_peer[986] 	lookupHopsSig:mean 	11.75
scalar Network.dyn_peer[987] 	lookupTimeSig:mean 	2.3833333333333
scalar Network.dyn_peer[987] 	lookupStabilitySig:mean 	0.93420730779568
scalar Network.dyn_peer[987] 	lookupHopsSig:mean 	23
scalar Network.dyn_peer[988] 	lookupTimeSig:mean 	1.3
scalar Network.dyn_peer[988] 	lookupStabilitySig:mean 	0.6737710442394
scalar Network.dyn_peer[988] 	lookupHopsSig:mean 	12.25
scalar Network.dyn_peer[989] 	lookupTimeSig:mean 	1.7833333333333
scalar Network.dyn_peer[989] 	lookupStabilitySig:mean 	0.82396323761592
scalar Network.dyn_peer[989] 	lookupHopsSig:mean 	17
scalar Network.dyn_peer[990] 	lookupTimeSig:mean 	2.0357142857143
scalar Network.dyn_peer[990] 	lookupStabilitySig:mean 	0.87310531509242
scalar Network.dyn_peer[990] 	lookupHopsSig:mean 	19.428571428571
scalar Network.dyn_peer[991] 	lookupTimeSig:mean 	1.55
scalar Network.dyn_peer[991] 	lookupStabilitySig:mean 	0.37704917788506
scalar Network.dyn_peer[991] 	lookupHopsSig:mean 	15
scalar Network.dyn_peer[992] 	lookupTimeSig:mean 	2.225
scalar Network.dyn_peer[992] 	lookupStabilitySig:mean 	0.8028164813295
scalar Network.dyn_peer[992] 	lookupHopsSig:mean 	21.5
scalar Network.dyn_peer[993] 	lookupTimeSig:mean 	1.5428571428571
scalar Network.dyn_peer[993] 	lookupStabilitySig:mean 	0.9103632909911
scalar Network.dyn_peer[993] 	lookupHopsSig:mean 	14.571428571429
scalar Network.dyn_peer[994] 	lookupTimeSig:mean 	1.825
scalar Network.dyn_peer[994] 	lookupStabilitySig:mean 	0.91866365354508
scalar Network.dyn_peer[994] 	lookupHopsSig:mean 	17.375
scalar Network.dyn_peer[995] 	lookupTimeSig:mean 	1.2
scalar Network.dyn_peer[995] 	lookupStabilitySig:mean 	0.374401897192
scalar Network.dyn_peer[995] 	lookupHopsSig:mean 	11.5
scalar Network.dyn_peer[996] 	lookupTimeSig:mean 	2.6666666666667
scalar Network.dyn_peer[996] 	lookupStabilitySig:mean 	0.80099198718866
scalar Network.dyn_peer[996] 	lookupHopsSig:mean 	26
scalar Network.dyn_peer[997] 	lookupTimeSig:mean 	2.5
scalar Network.dyn_peer[997] 	lookupStabilitySig:mean 	0.80238506607711
scalar Network.dyn_peer[997] 	lookupHopsSig:mean 	24.2
scalar Network.dyn_peer[998] 	lookupTimeSig:mean 	2.325
scalar Network.dyn_peer[998] 	lookupStabilitySig:mean 	0.87733880523592
scalar Network.dyn_peer[998] 	lookupHopsSig:mean 	22.5
scalar Network.dyn_peer[999] 	lookupTimeSig:mean 	4.1666666666667
scalar Network.dyn_peer[999] 	lookupStabilitySig:mean 	0.72677512963613
scalar Network.dyn_peer[999] 	lookupHopsSig:mean 	41
scalar Network.churner 	inGoingSizeSig:mean 	498.97802197802
