version 2
run Stability2-224-20130526-00:52:41-26640
attr configname Stability2
attr datetime 20130526-00:52:41
attr experiment Stability2
attr inifile omnetpp.ini
attr iterationvars $0=300
attr iterationvars2 "$0=300, $repetition=14"
attr measurement $0=300
attr network Network
attr processid 26640
attr repetition 14
attr replication #14
attr resultdir results
attr runnumber 224
attr seedset 224

scalar Network.dyn_peer[0] 	lookupTimeSig:mean 	0.8
scalar Network.dyn_peer[0] 	lookupStabilitySig:mean 	0.50336132446925
scalar Network.dyn_peer[0] 	lookupHopsSig:mean 	7.3333333333333
scalar Network.dyn_peer[1] 	lookupTimeSig:mean 	0.725
scalar Network.dyn_peer[1] 	lookupStabilitySig:mean 	0.44806132744998
scalar Network.dyn_peer[1] 	lookupHopsSig:mean 	6.5
scalar Network.dyn_peer[2] 	lookupTimeSig:mean 	0.65
scalar Network.dyn_peer[2] 	lookupStabilitySig:mean 	0.25
scalar Network.dyn_peer[2] 	lookupHopsSig:mean 	6
scalar Network.dyn_peer[3] 	lookupTimeSig:mean 	1.1
scalar Network.dyn_peer[3] 	lookupStabilitySig:mean 	0.69397716117757
scalar Network.dyn_peer[3] 	lookupHopsSig:mean 	10.142857142857
scalar Network.dyn_peer[4] 	lookupTimeSig:mean 	0.96
scalar Network.dyn_peer[4] 	lookupStabilitySig:mean 	0.53254245519638
scalar Network.dyn_peer[4] 	lookupHopsSig:mean 	8.8
scalar Network.dyn_peer[5] 	lookupTimeSig:mean 	1.1428571428571
scalar Network.dyn_peer[5] 	lookupStabilitySig:mean 	0.73430128927742
scalar Network.dyn_peer[5] 	lookupHopsSig:mean 	10.571428571429
scalar Network.dyn_peer[6] 	lookupTimeSig:mean 	1.175
scalar Network.dyn_peer[6] 	lookupStabilitySig:mean 	0.52782345563173
scalar Network.dyn_peer[6] 	lookupHopsSig:mean 	11
scalar Network.dyn_peer[7] 	lookupTimeSig:mean 	0.95
scalar Network.dyn_peer[7] 	lookupStabilitySig:mean 	0.82567567378283
scalar Network.dyn_peer[7] 	lookupHopsSig:mean 	8.75
scalar Network.dyn_peer[8] 	lookupTimeSig:mean 	0.8
scalar Network.dyn_peer[8] 	lookupStabilitySig:mean 	0.40966322273016
scalar Network.dyn_peer[8] 	lookupHopsSig:mean 	7.25
scalar Network.dyn_peer[9] 	lookupTimeSig:mean 	1.425
scalar Network.dyn_peer[9] 	lookupStabilitySig:mean 	0.50738527718931
scalar Network.dyn_peer[9] 	lookupHopsSig:mean 	13.5
scalar Network.dyn_peer[10] 	lookupTimeSig:mean 	1.15
scalar Network.dyn_peer[10] 	lookupStabilitySig:mean 	0.76067626476288
scalar Network.dyn_peer[10] 	lookupHopsSig:mean 	10.75
scalar Network.dyn_peer[11] 	lookupTimeSig:mean 	0.84444444444444
scalar Network.dyn_peer[11] 	lookupStabilitySig:mean 	0.79094848988785
scalar Network.dyn_peer[11] 	lookupHopsSig:mean 	7.5555555555556
scalar Network.dyn_peer[12] 	lookupTimeSig:mean 	1.45
scalar Network.dyn_peer[12] 	lookupStabilitySig:mean 	0.71282268688083
scalar Network.dyn_peer[12] 	lookupHopsSig:mean 	13.75
scalar Network.dyn_peer[13] 	lookupTimeSig:mean 	1.075
scalar Network.dyn_peer[13] 	lookupStabilitySig:mean 	0.46641899365932
scalar Network.dyn_peer[13] 	lookupHopsSig:mean 	10
scalar Network.dyn_peer[14] 	lookupTimeSig:mean 	1.325
scalar Network.dyn_peer[14] 	lookupStabilitySig:mean 	0.57162212021649
scalar Network.dyn_peer[14] 	lookupHopsSig:mean 	12.5
scalar Network.dyn_peer[15] 	lookupTimeSig:mean 	1.45
scalar Network.dyn_peer[15] 	lookupStabilitySig:mean 	0.47154088784009
scalar Network.dyn_peer[15] 	lookupHopsSig:mean 	13.75
scalar Network.dyn_peer[16] 	lookupTimeSig:mean 	0.74
scalar Network.dyn_peer[16] 	lookupStabilitySig:mean 	0.48927729986608
scalar Network.dyn_peer[16] 	lookupHopsSig:mean 	6.6
scalar Network.dyn_peer[17] 	lookupTimeSig:mean 	2.2333333333333
scalar Network.dyn_peer[17] 	lookupStabilitySig:mean 	0.81718565523624
scalar Network.dyn_peer[17] 	lookupHopsSig:mean 	21.666666666667
scalar Network.dyn_peer[18] 	lookupTimeSig:mean 	1.475
scalar Network.dyn_peer[18] 	lookupStabilitySig:mean 	0.72454499546438
scalar Network.dyn_peer[18] 	lookupHopsSig:mean 	14
scalar Network.dyn_peer[19] 	lookupTimeSig:mean 	0.75
scalar Network.dyn_peer[19] 	lookupStabilitySig:mean 	0.58114035800099
scalar Network.dyn_peer[19] 	lookupHopsSig:mean 	6.75
scalar Network.dyn_peer[20] 	lookupTimeSig:mean 	1.0333333333333
scalar Network.dyn_peer[20] 	lookupStabilitySig:mean 	0.27090394000212
scalar Network.dyn_peer[20] 	lookupHopsSig:mean 	9.6666666666667
scalar Network.dyn_peer[21] 	lookupTimeSig:mean 	1.6666666666667
scalar Network.dyn_peer[21] 	lookupStabilitySig:mean 	0.4679235642155
scalar Network.dyn_peer[21] 	lookupHopsSig:mean 	16
scalar Network.dyn_peer[22] 	lookupTimeSig:mean 	1.5
scalar Network.dyn_peer[22] 	lookupStabilitySig:mean 	0.64074074476957
scalar Network.dyn_peer[22] 	lookupHopsSig:mean 	14.5
scalar Network.dyn_peer[23] 	lookupTimeSig:mean 	0.86666666666667
scalar Network.dyn_peer[23] 	lookupStabilitySig:mean 	0.18333331743876
scalar Network.dyn_peer[23] 	lookupHopsSig:mean 	8
scalar Network.dyn_peer[24] 	lookupTimeSig:mean 	1.3333333333333
scalar Network.dyn_peer[24] 	lookupStabilitySig:mean 	0.39973545571168
scalar Network.dyn_peer[24] 	lookupHopsSig:mean 	12.666666666667
scalar Network.dyn_peer[25] 	lookupTimeSig:mean 	1.325
scalar Network.dyn_peer[25] 	lookupStabilitySig:mean 	0.46706029213965
scalar Network.dyn_peer[25] 	lookupHopsSig:mean 	12.5
scalar Network.dyn_peer[26] 	lookupTimeSig:mean 	1.2
scalar Network.dyn_peer[26] 	lookupStabilitySig:mean 	0.50222222507
scalar Network.dyn_peer[26] 	lookupHopsSig:mean 	11.333333333333
scalar Network.dyn_peer[27] 	lookupTimeSig:mean 	0.68
scalar Network.dyn_peer[27] 	lookupStabilitySig:mean 	0.55719586014748
scalar Network.dyn_peer[27] 	lookupHopsSig:mean 	6
scalar Network.dyn_peer[28] 	lookupTimeSig:mean 	0.95
scalar Network.dyn_peer[28] 	lookupStabilitySig:mean 	0.29999999701977
scalar Network.dyn_peer[28] 	lookupHopsSig:mean 	9
scalar Network.dyn_peer[29] 	lookupTimeSig:mean 	0.925
scalar Network.dyn_peer[29] 	lookupStabilitySig:mean 	0.76914316904731
scalar Network.dyn_peer[29] 	lookupHopsSig:mean 	8.375
scalar Network.dyn_peer[30] 	lookupTimeSig:mean 	0.675
scalar Network.dyn_peer[30] 	lookupStabilitySig:mean 	0.66337208636105
scalar Network.dyn_peer[30] 	lookupHopsSig:mean 	6
scalar Network.dyn_peer[31] 	lookupTimeSig:mean 	1.1666666666667
scalar Network.dyn_peer[31] 	lookupStabilitySig:mean 	0.7044940640529
scalar Network.dyn_peer[31] 	lookupHopsSig:mean 	11
scalar Network.dyn_peer[32] 	lookupTimeSig:mean 	1.0333333333333
scalar Network.dyn_peer[32] 	lookupStabilitySig:mean 	0.72542414565881
scalar Network.dyn_peer[32] 	lookupHopsSig:mean 	9.5
scalar Network.dyn_peer[33] 	lookupTimeSig:mean 	0.88333333333333
scalar Network.dyn_peer[33] 	lookupStabilitySig:mean 	0.55126572571074
scalar Network.dyn_peer[33] 	lookupHopsSig:mean 	8
scalar Network.dyn_peer[34] 	lookupTimeSig:mean 	1.3
scalar Network.dyn_peer[34] 	lookupStabilitySig:mean 	0.15897436439991
scalar Network.dyn_peer[34] 	lookupHopsSig:mean 	12.5
scalar Network.dyn_peer[35] 	lookupTimeSig:mean 	1.3833333333333
scalar Network.dyn_peer[35] 	lookupStabilitySig:mean 	0.6939754402265
scalar Network.dyn_peer[35] 	lookupHopsSig:mean 	13
scalar Network.dyn_peer[36] 	lookupTimeSig:mean 	0.7625
scalar Network.dyn_peer[36] 	lookupStabilitySig:mean 	0.86904538143426
scalar Network.dyn_peer[36] 	lookupHopsSig:mean 	6.75
scalar Network.dyn_peer[37] 	lookupTimeSig:mean 	0.76666666666667
scalar Network.dyn_peer[37] 	lookupStabilitySig:mean 	0.38822124401728
scalar Network.dyn_peer[37] 	lookupHopsSig:mean 	7
scalar Network.dyn_peer[38] 	lookupTimeSig:mean 	0.82
scalar Network.dyn_peer[38] 	lookupStabilitySig:mean 	0.601462546736
scalar Network.dyn_peer[38] 	lookupHopsSig:mean 	7.4
scalar Network.dyn_peer[39] 	lookupTimeSig:mean 	1.1
scalar Network.dyn_peer[39] 	lookupStabilitySig:mean 	0.82144611589611
scalar Network.dyn_peer[39] 	lookupHopsSig:mean 	10.2
scalar Network.dyn_peer[40] 	lookupTimeSig:mean 	1.3666666666667
scalar Network.dyn_peer[40] 	lookupStabilitySig:mean 	0.54767890026172
scalar Network.dyn_peer[40] 	lookupHopsSig:mean 	13
scalar Network.dyn_peer[41] 	lookupTimeSig:mean 	0.55714285714286
scalar Network.dyn_peer[41] 	lookupStabilitySig:mean 	0.74518025666475
scalar Network.dyn_peer[41] 	lookupHopsSig:mean 	4.7142857142857
scalar Network.dyn_peer[42] 	lookupTimeSig:mean 	0.775
scalar Network.dyn_peer[42] 	lookupStabilitySig:mean 	0.51474627573043
scalar Network.dyn_peer[42] 	lookupHopsSig:mean 	7
scalar Network.dyn_peer[43] 	lookupTimeSig:mean 	1.1333333333333
scalar Network.dyn_peer[43] 	lookupStabilitySig:mean 	0.6503081296881
scalar Network.dyn_peer[43] 	lookupHopsSig:mean 	10.666666666667
scalar Network.dyn_peer[44] 	lookupTimeSig:mean 	0.8
scalar Network.dyn_peer[44] 	lookupStabilitySig:mean 	0.47545247152448
scalar Network.dyn_peer[44] 	lookupHopsSig:mean 	7.25
scalar Network.dyn_peer[45] 	lookupTimeSig:mean 	1.6666666666667
scalar Network.dyn_peer[45] 	lookupStabilitySig:mean 	0.42627957214912
scalar Network.dyn_peer[45] 	lookupHopsSig:mean 	16
scalar Network.dyn_peer[46] 	lookupTimeSig:mean 	0.84
scalar Network.dyn_peer[46] 	lookupStabilitySig:mean 	0.90421956125647
scalar Network.dyn_peer[46] 	lookupHopsSig:mean 	7.5
scalar Network.dyn_peer[47] 	lookupTimeSig:mean 	0.94
scalar Network.dyn_peer[47] 	lookupStabilitySig:mean 	0.50180133655667
scalar Network.dyn_peer[47] 	lookupHopsSig:mean 	8.6
scalar Network.dyn_peer[48] 	lookupTimeSig:mean 	0.825
scalar Network.dyn_peer[48] 	lookupStabilitySig:mean 	0.77066921442747
scalar Network.dyn_peer[48] 	lookupHopsSig:mean 	7.5
scalar Network.dyn_peer[49] 	lookupTimeSig:mean 	0.94
scalar Network.dyn_peer[49] 	lookupStabilitySig:mean 	0.61306470967829
scalar Network.dyn_peer[49] 	lookupHopsSig:mean 	8.6
scalar Network.dyn_peer[50] 	lookupTimeSig:mean 	1.4
scalar Network.dyn_peer[50] 	lookupStabilitySig:mean 	0.64515326172113
scalar Network.dyn_peer[50] 	lookupHopsSig:mean 	13.2
scalar Network.dyn_peer[51] 	lookupTimeSig:mean 	1.0090909090909
scalar Network.dyn_peer[51] 	lookupStabilitySig:mean 	0.91306407360191
scalar Network.dyn_peer[51] 	lookupHopsSig:mean 	9.1818181818182
scalar Network.dyn_peer[52] 	lookupTimeSig:mean 	1.9
scalar Network.dyn_peer[52] 	lookupStabilitySig:mean 	0.54955750703812
scalar Network.dyn_peer[52] 	lookupHopsSig:mean 	18.5
scalar Network.dyn_peer[53] 	lookupTimeSig:mean 	0.9
scalar Network.dyn_peer[53] 	lookupStabilitySig:mean 	0.82520233349254
scalar Network.dyn_peer[53] 	lookupHopsSig:mean 	8.0666666666667
scalar Network.dyn_peer[54] 	lookupTimeSig:mean 	0.66666666666667
scalar Network.dyn_peer[54] 	lookupStabilitySig:mean 	0.26111111044884
scalar Network.dyn_peer[54] 	lookupHopsSig:mean 	6
scalar Network.dyn_peer[55] 	lookupTimeSig:mean 	1.075
scalar Network.dyn_peer[55] 	lookupStabilitySig:mean 	0.60634532943368
scalar Network.dyn_peer[55] 	lookupHopsSig:mean 	10
scalar Network.dyn_peer[56] 	lookupTimeSig:mean 	1.8666666666667
scalar Network.dyn_peer[56] 	lookupStabilitySig:mean 	0.37839095418652
scalar Network.dyn_peer[56] 	lookupHopsSig:mean 	18
scalar Network.dyn_peer[57] 	lookupTimeSig:mean 	1.425
scalar Network.dyn_peer[57] 	lookupStabilitySig:mean 	0.42557197250426
scalar Network.dyn_peer[57] 	lookupHopsSig:mean 	13.5
scalar Network.dyn_peer[58] 	lookupTimeSig:mean 	1.175
scalar Network.dyn_peer[58] 	lookupStabilitySig:mean 	0.8071224167943
scalar Network.dyn_peer[58] 	lookupHopsSig:mean 	10.875
scalar Network.dyn_peer[59] 	lookupTimeSig:mean 	1.2666666666667
scalar Network.dyn_peer[59] 	lookupStabilitySig:mean 	0.450734483699
scalar Network.dyn_peer[59] 	lookupHopsSig:mean 	12
scalar Network.dyn_peer[60] 	lookupTimeSig:mean 	1.2333333333333
scalar Network.dyn_peer[60] 	lookupStabilitySig:mean 	0.5868255396684
scalar Network.dyn_peer[60] 	lookupHopsSig:mean 	11.666666666667
scalar Network.dyn_peer[61] 	lookupTimeSig:mean 	0.72
scalar Network.dyn_peer[61] 	lookupStabilitySig:mean 	0.49803187400103
scalar Network.dyn_peer[61] 	lookupHopsSig:mean 	6.4
scalar Network.dyn_peer[62] 	lookupTimeSig:mean 	0.675
scalar Network.dyn_peer[62] 	lookupStabilitySig:mean 	0.65490777418017
scalar Network.dyn_peer[62] 	lookupHopsSig:mean 	6
scalar Network.dyn_peer[63] 	lookupTimeSig:mean 	1.1
scalar Network.dyn_peer[63] 	lookupStabilitySig:mean 	0.43538012355566
scalar Network.dyn_peer[63] 	lookupHopsSig:mean 	10.333333333333
scalar Network.dyn_peer[64] 	lookupTimeSig:mean 	1.075
scalar Network.dyn_peer[64] 	lookupStabilitySig:mean 	0.35242009721696
scalar Network.dyn_peer[64] 	lookupHopsSig:mean 	10
scalar Network.dyn_peer[65] 	lookupTimeSig:mean 	1.1166666666667
scalar Network.dyn_peer[65] 	lookupStabilitySig:mean 	0.7121817941467
scalar Network.dyn_peer[65] 	lookupHopsSig:mean 	10.333333333333
scalar Network.dyn_peer[66] 	lookupTimeSig:mean 	0.9
scalar Network.dyn_peer[66] 	lookupStabilitySig:mean 	0.75495536968281
scalar Network.dyn_peer[66] 	lookupHopsSig:mean 	8.0909090909091
scalar Network.dyn_peer[67] 	lookupTimeSig:mean 	1.12
scalar Network.dyn_peer[67] 	lookupStabilitySig:mean 	0.53279340825975
scalar Network.dyn_peer[67] 	lookupHopsSig:mean 	10.4
scalar Network.dyn_peer[68] 	lookupTimeSig:mean 	0.525
scalar Network.dyn_peer[68] 	lookupStabilitySig:mean 	0.44166665151715
scalar Network.dyn_peer[68] 	lookupHopsSig:mean 	4.5
scalar Network.dyn_peer[69] 	lookupTimeSig:mean 	1.65
scalar Network.dyn_peer[69] 	lookupStabilitySig:mean 	0.29545453935862
scalar Network.dyn_peer[69] 	lookupHopsSig:mean 	16
scalar Network.dyn_peer[70] 	lookupTimeSig:mean 	1.825
scalar Network.dyn_peer[70] 	lookupStabilitySig:mean 	0.77859073784202
scalar Network.dyn_peer[70] 	lookupHopsSig:mean 	17.5
scalar Network.dyn_peer[71] 	lookupTimeSig:mean 	2.2
scalar Network.dyn_peer[71] 	lookupStabilitySig:mean 	0.8788436613977
scalar Network.dyn_peer[71] 	lookupHopsSig:mean 	21.333333333333
scalar Network.dyn_peer[72] 	lookupTimeSig:mean 	0.86
scalar Network.dyn_peer[72] 	lookupStabilitySig:mean 	0.58007342368364
scalar Network.dyn_peer[72] 	lookupHopsSig:mean 	7.8
scalar Network.dyn_peer[73] 	lookupTimeSig:mean 	2.15
scalar Network.dyn_peer[73] 	lookupStabilitySig:mean 	0.27837835252285
scalar Network.dyn_peer[73] 	lookupHopsSig:mean 	21
scalar Network.dyn_peer[74] 	lookupTimeSig:mean 	0.95
scalar Network.dyn_peer[74] 	lookupStabilitySig:mean 	0.58398398850113
scalar Network.dyn_peer[74] 	lookupHopsSig:mean 	8.75
scalar Network.dyn_peer[75] 	lookupTimeSig:mean 	0.92
scalar Network.dyn_peer[75] 	lookupStabilitySig:mean 	0.89165996958812
scalar Network.dyn_peer[75] 	lookupHopsSig:mean 	8.2666666666667
scalar Network.dyn_peer[76] 	lookupTimeSig:mean 	0.33333333333333
scalar Network.dyn_peer[76] 	lookupStabilitySig:mean 	0.46666665375233
scalar Network.dyn_peer[76] 	lookupHopsSig:mean 	2.6666666666667
scalar Network.dyn_peer[77] 	lookupTimeSig:mean 	1.3
scalar Network.dyn_peer[77] 	lookupStabilitySig:mean 	0.50145065784454
scalar Network.dyn_peer[77] 	lookupHopsSig:mean 	12.333333333333
scalar Network.dyn_peer[78] 	lookupTimeSig:mean 	1.45
scalar Network.dyn_peer[78] 	lookupStabilitySig:mean 	0.45160667039454
scalar Network.dyn_peer[78] 	lookupHopsSig:mean 	13.75
scalar Network.dyn_peer[79] 	lookupTimeSig:mean 	1.15
scalar Network.dyn_peer[79] 	lookupStabilitySig:mean 	0.072727277874947
scalar Network.dyn_peer[79] 	lookupHopsSig:mean 	11
scalar Network.dyn_peer[80] 	lookupTimeSig:mean 	1.14
scalar Network.dyn_peer[80] 	lookupStabilitySig:mean 	0.64521636925638
scalar Network.dyn_peer[80] 	lookupHopsSig:mean 	10.6
scalar Network.dyn_peer[81] 	lookupTimeSig:mean 	0.99166666666667
scalar Network.dyn_peer[81] 	lookupStabilitySig:mean 	0.83919463089357
scalar Network.dyn_peer[81] 	lookupHopsSig:mean 	9
scalar Network.dyn_peer[82] 	lookupTimeSig:mean 	0.88
scalar Network.dyn_peer[82] 	lookupStabilitySig:mean 	0.6032557528466
scalar Network.dyn_peer[82] 	lookupHopsSig:mean 	8
scalar Network.dyn_peer[83] 	lookupTimeSig:mean 	0.76
scalar Network.dyn_peer[83] 	lookupStabilitySig:mean 	0.58858346045017
scalar Network.dyn_peer[83] 	lookupHopsSig:mean 	6.8
scalar Network.dyn_peer[84] 	lookupTimeSig:mean 	0.71666666666667
scalar Network.dyn_peer[84] 	lookupStabilitySig:mean 	0.77854549201826
scalar Network.dyn_peer[84] 	lookupHopsSig:mean 	6.3333333333333
scalar Network.dyn_peer[85] 	lookupTimeSig:mean 	1
scalar Network.dyn_peer[85] 	lookupStabilitySig:mean 	0.58176406100392
scalar Network.dyn_peer[85] 	lookupHopsSig:mean 	9.25
scalar Network.dyn_peer[86] 	lookupTimeSig:mean 	0.775
scalar Network.dyn_peer[86] 	lookupStabilitySig:mean 	0.45008817687631
scalar Network.dyn_peer[86] 	lookupHopsSig:mean 	7
scalar Network.dyn_peer[87] 	lookupTimeSig:mean 	0.97777777777778
scalar Network.dyn_peer[87] 	lookupStabilitySig:mean 	0.92335766326222
scalar Network.dyn_peer[87] 	lookupHopsSig:mean 	8.8888888888889
scalar Network.dyn_peer[88] 	lookupTimeSig:mean 	1.2666666666667
scalar Network.dyn_peer[88] 	lookupStabilitySig:mean 	0.45649719114105
scalar Network.dyn_peer[88] 	lookupHopsSig:mean 	12
scalar Network.dyn_peer[89] 	lookupTimeSig:mean 	1.8333333333333
scalar Network.dyn_peer[89] 	lookupStabilitySig:mean 	0.75524940341711
scalar Network.dyn_peer[89] 	lookupHopsSig:mean 	17.666666666667
scalar Network.dyn_peer[90] 	lookupTimeSig:mean 	0.82
scalar Network.dyn_peer[90] 	lookupStabilitySig:mean 	0.76014124788344
scalar Network.dyn_peer[90] 	lookupHopsSig:mean 	7.4
scalar Network.dyn_peer[91] 	lookupTimeSig:mean 	0.825
scalar Network.dyn_peer[91] 	lookupStabilitySig:mean 	0.63777924701571
scalar Network.dyn_peer[91] 	lookupHopsSig:mean 	7.5
scalar Network.dyn_peer[92] 	lookupTimeSig:mean 	0.9875
scalar Network.dyn_peer[92] 	lookupStabilitySig:mean 	0.79127682326362
scalar Network.dyn_peer[92] 	lookupHopsSig:mean 	9
scalar Network.dyn_peer[93] 	lookupTimeSig:mean 	0.83333333333333
scalar Network.dyn_peer[93] 	lookupStabilitySig:mean 	0.27435896545649
scalar Network.dyn_peer[93] 	lookupHopsSig:mean 	7.6666666666667
scalar Network.dyn_peer[94] 	lookupTimeSig:mean 	0.84444444444444
scalar Network.dyn_peer[94] 	lookupStabilitySig:mean 	0.75012398252471
scalar Network.dyn_peer[94] 	lookupHopsSig:mean 	7.5555555555556
scalar Network.dyn_peer[95] 	lookupTimeSig:mean 	1.3
scalar Network.dyn_peer[95] 	lookupStabilitySig:mean 	0.26612902184327
scalar Network.dyn_peer[95] 	lookupHopsSig:mean 	12.333333333333
scalar Network.dyn_peer[96] 	lookupTimeSig:mean 	2.1666666666667
scalar Network.dyn_peer[96] 	lookupStabilitySig:mean 	0.49989175796509
scalar Network.dyn_peer[96] 	lookupHopsSig:mean 	21
scalar Network.dyn_peer[97] 	lookupTimeSig:mean 	0.61666666666667
scalar Network.dyn_peer[97] 	lookupStabilitySig:mean 	0.60251138623183
scalar Network.dyn_peer[97] 	lookupHopsSig:mean 	5.3333333333333
scalar Network.dyn_peer[98] 	lookupTimeSig:mean 	0.78571428571429
scalar Network.dyn_peer[98] 	lookupStabilitySig:mean 	0.73881578937705
scalar Network.dyn_peer[98] 	lookupHopsSig:mean 	7
scalar Network.dyn_peer[99] 	lookupTimeSig:mean 	1.0333333333333
scalar Network.dyn_peer[99] 	lookupStabilitySig:mean 	0.29033906261126
scalar Network.dyn_peer[99] 	lookupHopsSig:mean 	9.6666666666667
scalar Network.dyn_peer[100] 	lookupTimeSig:mean 	1.0333333333333
scalar Network.dyn_peer[100] 	lookupStabilitySig:mean 	0.60894453401367
scalar Network.dyn_peer[100] 	lookupHopsSig:mean 	9.6666666666667
scalar Network.dyn_peer[101] 	lookupTimeSig:mean 	0.95
scalar Network.dyn_peer[101] 	lookupStabilitySig:mean 	0.5215532919392
scalar Network.dyn_peer[101] 	lookupHopsSig:mean 	8.75
scalar Network.dyn_peer[102] 	lookupTimeSig:mean 	1.3333333333333
scalar Network.dyn_peer[102] 	lookupStabilitySig:mean 	0.4557570318381
scalar Network.dyn_peer[102] 	lookupHopsSig:mean 	12.666666666667
scalar Network.dyn_peer[103] 	lookupTimeSig:mean 	1.2666666666667
scalar Network.dyn_peer[103] 	lookupStabilitySig:mean 	0.74454139793913
scalar Network.dyn_peer[103] 	lookupHopsSig:mean 	12
scalar Network.dyn_peer[104] 	lookupTimeSig:mean 	1.0428571428571
scalar Network.dyn_peer[104] 	lookupStabilitySig:mean 	0.76391802169383
scalar Network.dyn_peer[104] 	lookupHopsSig:mean 	9.5714285714286
scalar Network.dyn_peer[105] 	lookupTimeSig:mean 	0.98571428571429
scalar Network.dyn_peer[105] 	lookupStabilitySig:mean 	0.69110271015338
scalar Network.dyn_peer[105] 	lookupHopsSig:mean 	9
scalar Network.dyn_peer[106] 	lookupTimeSig:mean 	1.9
scalar Network.dyn_peer[106] 	lookupStabilitySig:mean 	0.77962963096797
scalar Network.dyn_peer[106] 	lookupHopsSig:mean 	18.5
scalar Network.dyn_peer[107] 	lookupTimeSig:mean 	1.24
scalar Network.dyn_peer[107] 	lookupStabilitySig:mean 	0.90251222290099
scalar Network.dyn_peer[107] 	lookupHopsSig:mean 	11.5
scalar Network.dyn_peer[108] 	lookupTimeSig:mean 	0.56666666666667
scalar Network.dyn_peer[108] 	lookupStabilitySig:mean 	0.24642855922381
scalar Network.dyn_peer[108] 	lookupHopsSig:mean 	5
scalar Network.dyn_peer[109] 	lookupTimeSig:mean 	0.9
scalar Network.dyn_peer[109] 	lookupStabilitySig:mean 	0.8087374366199
scalar Network.dyn_peer[109] 	lookupHopsSig:mean 	8.1111111111111
scalar Network.dyn_peer[110] 	lookupTimeSig:mean 	0.63333333333333
scalar Network.dyn_peer[110] 	lookupStabilitySig:mean 	0.40292398134867
scalar Network.dyn_peer[110] 	lookupHopsSig:mean 	5.6666666666667
scalar Network.dyn_peer[111] 	lookupTimeSig:mean 	0.92857142857143
scalar Network.dyn_peer[111] 	lookupStabilitySig:mean 	0.66000860117908
scalar Network.dyn_peer[111] 	lookupHopsSig:mean 	8.4285714285714
scalar Network.dyn_peer[112] 	lookupTimeSig:mean 	0.9
scalar Network.dyn_peer[112] 	lookupStabilitySig:mean 	0.69852192252874
scalar Network.dyn_peer[112] 	lookupHopsSig:mean 	8.2
scalar Network.dyn_peer[113] 	lookupTimeSig:mean 	1.1
scalar Network.dyn_peer[113] 	lookupStabilitySig:mean 	0.089285716414452
scalar Network.dyn_peer[113] 	lookupHopsSig:mean 	10.5
scalar Network.dyn_peer[114] 	lookupTimeSig:mean 	1.375
scalar Network.dyn_peer[114] 	lookupStabilitySig:mean 	0.49481350183487
scalar Network.dyn_peer[114] 	lookupHopsSig:mean 	13
scalar Network.dyn_peer[115] 	lookupTimeSig:mean 	1.08
scalar Network.dyn_peer[115] 	lookupStabilitySig:mean 	0.68956822529435
scalar Network.dyn_peer[115] 	lookupHopsSig:mean 	10
scalar Network.dyn_peer[116] 	lookupTimeSig:mean 	0.9
scalar Network.dyn_peer[116] 	lookupStabilitySig:mean 	0.52916665934026
scalar Network.dyn_peer[116] 	lookupHopsSig:mean 	8.25
scalar Network.dyn_peer[117] 	lookupTimeSig:mean 	0.96666666666667
scalar Network.dyn_peer[117] 	lookupStabilitySig:mean 	0.22716050843398
scalar Network.dyn_peer[117] 	lookupHopsSig:mean 	9
scalar Network.dyn_peer[118] 	lookupTimeSig:mean 	0.94
scalar Network.dyn_peer[118] 	lookupStabilitySig:mean 	0.73423472717404
scalar Network.dyn_peer[118] 	lookupHopsSig:mean 	8.6
scalar Network.dyn_peer[119] 	lookupTimeSig:mean 	1.5666666666667
scalar Network.dyn_peer[119] 	lookupStabilitySig:mean 	0.63847432409724
scalar Network.dyn_peer[119] 	lookupHopsSig:mean 	15
scalar Network.dyn_peer[120] 	lookupTimeSig:mean 	0.64
scalar Network.dyn_peer[120] 	lookupStabilitySig:mean 	0.57379532158375
scalar Network.dyn_peer[120] 	lookupHopsSig:mean 	5.6
scalar Network.dyn_peer[121] 	lookupTimeSig:mean 	0.94285714285714
scalar Network.dyn_peer[121] 	lookupStabilitySig:mean 	0.82611373253167
scalar Network.dyn_peer[121] 	lookupHopsSig:mean 	8.5714285714286
scalar Network.dyn_peer[122] 	lookupTimeSig:mean 	1.06
scalar Network.dyn_peer[122] 	lookupStabilitySig:mean 	0.82360579064116
scalar Network.dyn_peer[122] 	lookupHopsSig:mean 	9.7
scalar Network.dyn_peer[123] 	lookupTimeSig:mean 	0.84444444444444
scalar Network.dyn_peer[123] 	lookupStabilitySig:mean 	0.79318908426083
scalar Network.dyn_peer[123] 	lookupHopsSig:mean 	7.5555555555556
scalar Network.dyn_peer[124] 	lookupTimeSig:mean 	0.9875
scalar Network.dyn_peer[124] 	lookupStabilitySig:mean 	0.78983063693158
scalar Network.dyn_peer[124] 	lookupHopsSig:mean 	9
scalar Network.dyn_peer[125] 	lookupTimeSig:mean 	1.325
scalar Network.dyn_peer[125] 	lookupStabilitySig:mean 	0.63402611576021
scalar Network.dyn_peer[125] 	lookupHopsSig:mean 	12.5
scalar Network.dyn_peer[126] 	lookupTimeSig:mean 	1.6
scalar Network.dyn_peer[126] 	lookupStabilitySig:mean 	0.61444461997598
scalar Network.dyn_peer[126] 	lookupHopsSig:mean 	15.25
scalar Network.dyn_peer[127] 	lookupTimeSig:mean 	1.0666666666667
scalar Network.dyn_peer[127] 	lookupStabilitySig:mean 	0.43518519898256
scalar Network.dyn_peer[127] 	lookupHopsSig:mean 	10
scalar Network.dyn_peer[128] 	lookupTimeSig:mean 	0.85555555555556
scalar Network.dyn_peer[128] 	lookupStabilitySig:mean 	0.85212079580459
scalar Network.dyn_peer[128] 	lookupHopsSig:mean 	7.6666666666667
scalar Network.dyn_peer[129] 	lookupTimeSig:mean 	1.2
scalar Network.dyn_peer[129] 	lookupStabilitySig:mean 	0.82955974837144
scalar Network.dyn_peer[129] 	lookupHopsSig:mean 	11.333333333333
scalar Network.dyn_peer[130] 	lookupTimeSig:mean 	0.79
scalar Network.dyn_peer[130] 	lookupStabilitySig:mean 	0.77899969210848
scalar Network.dyn_peer[130] 	lookupHopsSig:mean 	7
scalar Network.dyn_peer[131] 	lookupTimeSig:mean 	0.7
scalar Network.dyn_peer[131] 	lookupStabilitySig:mean 	0.63552979597201
scalar Network.dyn_peer[131] 	lookupHopsSig:mean 	6.1666666666667
scalar Network.dyn_peer[132] 	lookupTimeSig:mean 	0.73333333333333
scalar Network.dyn_peer[132] 	lookupStabilitySig:mean 	0.33333332339923
scalar Network.dyn_peer[132] 	lookupHopsSig:mean 	6.6666666666667
scalar Network.dyn_peer[133] 	lookupTimeSig:mean 	0.53333333333333
scalar Network.dyn_peer[133] 	lookupStabilitySig:mean 	0.31666667262713
scalar Network.dyn_peer[133] 	lookupHopsSig:mean 	4.6666666666667
scalar Network.dyn_peer[134] 	lookupTimeSig:mean 	1.3818181818182
scalar Network.dyn_peer[134] 	lookupStabilitySig:mean 	0.81954540507021
scalar Network.dyn_peer[134] 	lookupHopsSig:mean 	12.909090909091
scalar Network.dyn_peer[135] 	lookupTimeSig:mean 	0.93333333333333
scalar Network.dyn_peer[135] 	lookupStabilitySig:mean 	0.93085645074542
scalar Network.dyn_peer[135] 	lookupHopsSig:mean 	8.4444444444444
scalar Network.dyn_peer[136] 	lookupTimeSig:mean 	0.98333333333333
scalar Network.dyn_peer[136] 	lookupStabilitySig:mean 	0.7082323556145
scalar Network.dyn_peer[136] 	lookupHopsSig:mean 	9
scalar Network.dyn_peer[137] 	lookupTimeSig:mean 	1.1714285714286
scalar Network.dyn_peer[137] 	lookupStabilitySig:mean 	0.72732311966164
scalar Network.dyn_peer[137] 	lookupHopsSig:mean 	10.857142857143
scalar Network.dyn_peer[138] 	lookupTimeSig:mean 	1.2125
scalar Network.dyn_peer[138] 	lookupStabilitySig:mean 	0.80616469494998
scalar Network.dyn_peer[138] 	lookupHopsSig:mean 	11.25
scalar Network.dyn_peer[139] 	lookupTimeSig:mean 	1.475
scalar Network.dyn_peer[139] 	lookupStabilitySig:mean 	0.87575295567513
scalar Network.dyn_peer[139] 	lookupHopsSig:mean 	14
scalar Network.dyn_peer[140] 	lookupTimeSig:mean 	2.2333333333333
scalar Network.dyn_peer[140] 	lookupStabilitySig:mean 	0.47131148974101
scalar Network.dyn_peer[140] 	lookupHopsSig:mean 	21.666666666667
scalar Network.dyn_peer[141] 	lookupTimeSig:mean 	1.3
scalar Network.dyn_peer[141] 	lookupStabilitySig:mean 	0.92012787038194
scalar Network.dyn_peer[141] 	lookupHopsSig:mean 	12.142857142857
scalar Network.dyn_peer[142] 	lookupTimeSig:mean 	0.86153846153846
scalar Network.dyn_peer[142] 	lookupStabilitySig:mean 	0.83074097801
scalar Network.dyn_peer[142] 	lookupHopsSig:mean 	7.6923076923077
scalar Network.dyn_peer[143] 	lookupTimeSig:mean 	0.8
scalar Network.dyn_peer[143] 	lookupStabilitySig:mean 	0.66557572185993
scalar Network.dyn_peer[143] 	lookupHopsSig:mean 	7.2
scalar Network.dyn_peer[144] 	lookupTimeSig:mean 	0.87777777777778
scalar Network.dyn_peer[144] 	lookupStabilitySig:mean 	0.82377890331878
scalar Network.dyn_peer[144] 	lookupHopsSig:mean 	7.8888888888889
scalar Network.dyn_peer[145] 	lookupTimeSig:mean 	0.9
scalar Network.dyn_peer[145] 	lookupStabilitySig:mean 	0.51171660870314
scalar Network.dyn_peer[145] 	lookupHopsSig:mean 	8.2
scalar Network.dyn_peer[146] 	lookupTimeSig:mean 	0.95
scalar Network.dyn_peer[146] 	lookupStabilitySig:mean 	0.44947619736195
scalar Network.dyn_peer[146] 	lookupHopsSig:mean 	8.75
scalar Network.dyn_peer[147] 	lookupTimeSig:mean 	0.96
scalar Network.dyn_peer[147] 	lookupStabilitySig:mean 	0.85555463470519
scalar Network.dyn_peer[147] 	lookupHopsSig:mean 	8.8
scalar Network.dyn_peer[148] 	lookupTimeSig:mean 	0.94
scalar Network.dyn_peer[148] 	lookupStabilitySig:mean 	0.85492792706937
scalar Network.dyn_peer[148] 	lookupHopsSig:mean 	8.5
scalar Network.dyn_peer[149] 	lookupTimeSig:mean 	0.9
scalar Network.dyn_peer[149] 	lookupStabilitySig:mean 	0.93871932814363
scalar Network.dyn_peer[149] 	lookupHopsSig:mean 	8.125
scalar Network.dyn_peer[150] 	lookupTimeSig:mean 	1.1333333333333
scalar Network.dyn_peer[150] 	lookupStabilitySig:mean 	0.42962577690681
scalar Network.dyn_peer[150] 	lookupHopsSig:mean 	10.666666666667
scalar Network.dyn_peer[151] 	lookupTimeSig:mean 	1.3
scalar Network.dyn_peer[151] 	lookupStabilitySig:mean 	0.43645834922791
scalar Network.dyn_peer[151] 	lookupHopsSig:mean 	12.333333333333
scalar Network.dyn_peer[152] 	lookupTimeSig:mean 	0.78
scalar Network.dyn_peer[152] 	lookupStabilitySig:mean 	0.71558383740485
scalar Network.dyn_peer[152] 	lookupHopsSig:mean 	7
scalar Network.dyn_peer[153] 	lookupTimeSig:mean 	1.2333333333333
scalar Network.dyn_peer[153] 	lookupStabilitySig:mean 	0.45146198570728
scalar Network.dyn_peer[153] 	lookupHopsSig:mean 	11.666666666667
scalar Network.dyn_peer[154] 	lookupTimeSig:mean 	0.825
scalar Network.dyn_peer[154] 	lookupStabilitySig:mean 	0.45277238544077
scalar Network.dyn_peer[154] 	lookupHopsSig:mean 	7.5
scalar Network.dyn_peer[155] 	lookupTimeSig:mean 	0.86666666666667
scalar Network.dyn_peer[155] 	lookupStabilitySig:mean 	0.23367002109687
scalar Network.dyn_peer[155] 	lookupHopsSig:mean 	8
scalar Network.dyn_peer[156] 	lookupTimeSig:mean 	2.7
scalar Network.dyn_peer[156] 	lookupStabilitySig:mean 	0.78348537907004
scalar Network.dyn_peer[156] 	lookupHopsSig:mean 	26.5
scalar Network.dyn_peer[157] 	lookupTimeSig:mean 	0.87142857142857
scalar Network.dyn_peer[157] 	lookupStabilitySig:mean 	0.71307898399287
scalar Network.dyn_peer[157] 	lookupHopsSig:mean 	7.8571428571429
scalar Network.dyn_peer[158] 	lookupTimeSig:mean 	1.25
scalar Network.dyn_peer[158] 	lookupStabilitySig:mean 	0.75280285812914
scalar Network.dyn_peer[158] 	lookupHopsSig:mean 	11.75
scalar Network.dyn_peer[159] 	lookupTimeSig:mean 	0.725
scalar Network.dyn_peer[159] 	lookupStabilitySig:mean 	0.89765560050728
scalar Network.dyn_peer[159] 	lookupHopsSig:mean 	6.375
scalar Network.dyn_peer[160] 	lookupTimeSig:mean 	1.3333333333333
scalar Network.dyn_peer[160] 	lookupStabilitySig:mean 	0.2152174115181
scalar Network.dyn_peer[160] 	lookupHopsSig:mean 	12.666666666667
scalar Network.dyn_peer[161] 	lookupTimeSig:mean 	1.22
scalar Network.dyn_peer[161] 	lookupStabilitySig:mean 	0.86507239304483
scalar Network.dyn_peer[161] 	lookupHopsSig:mean 	11.4
scalar Network.dyn_peer[162] 	lookupTimeSig:mean 	2.1
scalar Network.dyn_peer[162] 	lookupStabilitySig:mean 	0.56986300647259
scalar Network.dyn_peer[162] 	lookupHopsSig:mean 	20.5
scalar Network.dyn_peer[163] 	lookupTimeSig:mean 	0.88
scalar Network.dyn_peer[163] 	lookupStabilitySig:mean 	0.83863907069899
scalar Network.dyn_peer[163] 	lookupHopsSig:mean 	7.9
scalar Network.dyn_peer[164] 	lookupTimeSig:mean 	0.9
scalar Network.dyn_peer[164] 	lookupStabilitySig:mean 	0.84020531430308
scalar Network.dyn_peer[164] 	lookupHopsSig:mean 	8.1428571428571
scalar Network.dyn_peer[165] 	lookupTimeSig:mean 	1.6
scalar Network.dyn_peer[165] 	lookupStabilitySig:mean 	0.20666664838791
scalar Network.dyn_peer[165] 	lookupHopsSig:mean 	15.5
scalar Network.dyn_peer[166] 	lookupTimeSig:mean 	0.9
scalar Network.dyn_peer[166] 	lookupStabilitySig:mean 	0.71626072842628
scalar Network.dyn_peer[166] 	lookupHopsSig:mean 	8.25
scalar Network.dyn_peer[167] 	lookupTimeSig:mean 	1.1
scalar Network.dyn_peer[167] 	lookupStabilitySig:mean 	0.51589069049805
scalar Network.dyn_peer[167] 	lookupHopsSig:mean 	10.25
scalar Network.dyn_peer[168] 	lookupTimeSig:mean 	1
scalar Network.dyn_peer[168] 	lookupStabilitySig:mean 	0.66742633096874
scalar Network.dyn_peer[168] 	lookupHopsSig:mean 	9.25
scalar Network.dyn_peer[169] 	lookupTimeSig:mean 	0.75
scalar Network.dyn_peer[169] 	lookupStabilitySig:mean 	0.41937065497041
scalar Network.dyn_peer[169] 	lookupHopsSig:mean 	6.75
scalar Network.dyn_peer[170] 	lookupTimeSig:mean 	1.2333333333333
scalar Network.dyn_peer[170] 	lookupStabilitySig:mean 	0.45681443810463
scalar Network.dyn_peer[170] 	lookupHopsSig:mean 	11.666666666667
scalar Network.dyn_peer[171] 	lookupTimeSig:mean 	0.83333333333333
scalar Network.dyn_peer[171] 	lookupStabilitySig:mean 	0.18753389020761
scalar Network.dyn_peer[171] 	lookupHopsSig:mean 	7.6666666666667
scalar Network.dyn_peer[172] 	lookupTimeSig:mean 	1.22
scalar Network.dyn_peer[172] 	lookupStabilitySig:mean 	0.63555617779493
scalar Network.dyn_peer[172] 	lookupHopsSig:mean 	11.4
scalar Network.dyn_peer[173] 	lookupTimeSig:mean 	1.9
scalar Network.dyn_peer[173] 	lookupStabilitySig:mean 	0.69851888964574
scalar Network.dyn_peer[173] 	lookupHopsSig:mean 	18.333333333333
scalar Network.dyn_peer[174] 	lookupTimeSig:mean 	1.2
scalar Network.dyn_peer[174] 	lookupStabilitySig:mean 	0.43346465130647
scalar Network.dyn_peer[174] 	lookupHopsSig:mean 	11.333333333333
scalar Network.dyn_peer[175] 	lookupTimeSig:mean 	1.0166666666667
scalar Network.dyn_peer[175] 	lookupStabilitySig:mean 	0.86271440424025
scalar Network.dyn_peer[175] 	lookupHopsSig:mean 	9.3333333333333
scalar Network.dyn_peer[176] 	lookupTimeSig:mean 	0.4
scalar Network.dyn_peer[176] 	lookupStabilitySig:mean 	0.40740740050872
scalar Network.dyn_peer[176] 	lookupHopsSig:mean 	3.3333333333333
scalar Network.dyn_peer[177] 	lookupTimeSig:mean 	1.12
scalar Network.dyn_peer[177] 	lookupStabilitySig:mean 	0.90028488077223
scalar Network.dyn_peer[177] 	lookupHopsSig:mean 	10.3
scalar Network.dyn_peer[178] 	lookupTimeSig:mean 	1.16
scalar Network.dyn_peer[178] 	lookupStabilitySig:mean 	0.77117360979319
scalar Network.dyn_peer[178] 	lookupHopsSig:mean 	10.8
scalar Network.dyn_peer[179] 	lookupTimeSig:mean 	1.7714285714286
scalar Network.dyn_peer[179] 	lookupStabilitySig:mean 	0.87619196570345
scalar Network.dyn_peer[179] 	lookupHopsSig:mean 	16.857142857143
scalar Network.dyn_peer[180] 	lookupTimeSig:mean 	1.15
scalar Network.dyn_peer[180] 	lookupStabilitySig:mean 	0.94836411788128
scalar Network.dyn_peer[180] 	lookupHopsSig:mean 	10.583333333333
scalar Network.dyn_peer[181] 	lookupTimeSig:mean 	1.0111111111111
scalar Network.dyn_peer[181] 	lookupStabilitySig:mean 	0.80781472101808
scalar Network.dyn_peer[181] 	lookupHopsSig:mean 	9.2222222222222
scalar Network.dyn_peer[182] 	lookupTimeSig:mean 	1.5
scalar Network.dyn_peer[182] 	lookupStabilitySig:mean 	0.52857141941786
scalar Network.dyn_peer[182] 	lookupHopsSig:mean 	14.5
scalar Network.dyn_peer[183] 	lookupTimeSig:mean 	1.3
scalar Network.dyn_peer[183] 	lookupStabilitySig:mean 	0.48279413332542
scalar Network.dyn_peer[183] 	lookupHopsSig:mean 	12.333333333333
scalar Network.dyn_peer[184] 	lookupTimeSig:mean 	1.5
scalar Network.dyn_peer[184] 	lookupStabilitySig:mean 	0.68001554409663
scalar Network.dyn_peer[184] 	lookupHopsSig:mean 	14.333333333333
scalar Network.dyn_peer[185] 	lookupTimeSig:mean 	0.56
scalar Network.dyn_peer[185] 	lookupStabilitySig:mean 	0.64698819220066
scalar Network.dyn_peer[185] 	lookupHopsSig:mean 	4.8
scalar Network.dyn_peer[186] 	lookupTimeSig:mean 	1.35
scalar Network.dyn_peer[186] 	lookupStabilitySig:mean 	0.8376208813861
scalar Network.dyn_peer[186] 	lookupHopsSig:mean 	12.625
scalar Network.dyn_peer[187] 	lookupTimeSig:mean 	1.0090909090909
scalar Network.dyn_peer[187] 	lookupStabilitySig:mean 	0.89850102729079
scalar Network.dyn_peer[187] 	lookupHopsSig:mean 	9.1818181818182
scalar Network.dyn_peer[188] 	lookupTimeSig:mean 	1.1428571428571
scalar Network.dyn_peer[188] 	lookupStabilitySig:mean 	0.86025235336274
scalar Network.dyn_peer[188] 	lookupHopsSig:mean 	10.571428571429
scalar Network.dyn_peer[189] 	lookupTimeSig:mean 	0.9
scalar Network.dyn_peer[189] 	lookupStabilitySig:mean 	0.60094268387184
scalar Network.dyn_peer[189] 	lookupHopsSig:mean 	8.25
scalar Network.dyn_peer[190] 	lookupTimeSig:mean 	0.875
scalar Network.dyn_peer[190] 	lookupStabilitySig:mean 	0.4935179874301
scalar Network.dyn_peer[190] 	lookupHopsSig:mean 	8
scalar Network.dyn_peer[191] 	lookupTimeSig:mean 	1.25
scalar Network.dyn_peer[191] 	lookupStabilitySig:mean 	0.44999998807907
scalar Network.dyn_peer[191] 	lookupHopsSig:mean 	12
scalar Network.dyn_peer[192] 	lookupTimeSig:mean 	0.78571428571429
scalar Network.dyn_peer[192] 	lookupStabilitySig:mean 	0.70881890891386
scalar Network.dyn_peer[192] 	lookupHopsSig:mean 	7
scalar Network.dyn_peer[193] 	lookupTimeSig:mean 	1.22
scalar Network.dyn_peer[193] 	lookupStabilitySig:mean 	0.77685546800494
scalar Network.dyn_peer[193] 	lookupHopsSig:mean 	11.4
scalar Network.dyn_peer[194] 	lookupTimeSig:mean 	1.4
scalar Network.dyn_peer[194] 	lookupStabilitySig:mean 	0.79387543629855
scalar Network.dyn_peer[194] 	lookupHopsSig:mean 	13.25
scalar Network.dyn_peer[195] 	lookupTimeSig:mean 	1.1142857142857
scalar Network.dyn_peer[195] 	lookupStabilitySig:mean 	0.77256657688745
scalar Network.dyn_peer[195] 	lookupHopsSig:mean 	10.285714285714
scalar Network.dyn_peer[196] 	lookupTimeSig:mean 	0.95714285714286
scalar Network.dyn_peer[196] 	lookupStabilitySig:mean 	0.75589196783091
scalar Network.dyn_peer[196] 	lookupHopsSig:mean 	8.7142857142857
scalar Network.dyn_peer[197] 	lookupTimeSig:mean 	2.2
scalar Network.dyn_peer[197] 	lookupStabilitySig:mean 	0.69121622915069
scalar Network.dyn_peer[197] 	lookupHopsSig:mean 	21.333333333333
scalar Network.dyn_peer[198] 	lookupTimeSig:mean 	1.025
scalar Network.dyn_peer[198] 	lookupStabilitySig:mean 	0.59739803522825
scalar Network.dyn_peer[198] 	lookupHopsSig:mean 	9.5
scalar Network.dyn_peer[199] 	lookupTimeSig:mean 	1
scalar Network.dyn_peer[199] 	lookupStabilitySig:mean 	0.8385891121413
scalar Network.dyn_peer[199] 	lookupHopsSig:mean 	9.1428571428571
scalar Network.dyn_peer[200] 	lookupTimeSig:mean 	0.94
scalar Network.dyn_peer[200] 	lookupStabilitySig:mean 	0.668925691396
scalar Network.dyn_peer[200] 	lookupHopsSig:mean 	8.6
scalar Network.dyn_peer[201] 	lookupTimeSig:mean 	1.4
scalar Network.dyn_peer[201] 	lookupStabilitySig:mean 	0.013725474476814
scalar Network.dyn_peer[201] 	lookupHopsSig:mean 	13.5
scalar Network.dyn_peer[202] 	lookupTimeSig:mean 	0.73333333333333
scalar Network.dyn_peer[202] 	lookupStabilitySig:mean 	0.36309523383776
scalar Network.dyn_peer[202] 	lookupHopsSig:mean 	6.6666666666667
scalar Network.dyn_peer[203] 	lookupTimeSig:mean 	0.98333333333333
scalar Network.dyn_peer[203] 	lookupStabilitySig:mean 	0.72048574655006
scalar Network.dyn_peer[203] 	lookupHopsSig:mean 	9
scalar Network.dyn_peer[204] 	lookupTimeSig:mean 	0.96666666666667
scalar Network.dyn_peer[204] 	lookupStabilitySig:mean 	0.6960842711851
scalar Network.dyn_peer[204] 	lookupHopsSig:mean 	8.8333333333333
scalar Network.dyn_peer[205] 	lookupTimeSig:mean 	0.88
scalar Network.dyn_peer[205] 	lookupStabilitySig:mean 	0.81510325185955
scalar Network.dyn_peer[205] 	lookupHopsSig:mean 	8
scalar Network.dyn_peer[206] 	lookupTimeSig:mean 	1.525
scalar Network.dyn_peer[206] 	lookupStabilitySig:mean 	0.80874201282859
scalar Network.dyn_peer[206] 	lookupHopsSig:mean 	14.5
scalar Network.dyn_peer[207] 	lookupTimeSig:mean 	1.2
scalar Network.dyn_peer[207] 	lookupStabilitySig:mean 	0.47076067875605
scalar Network.dyn_peer[207] 	lookupHopsSig:mean 	11.25
scalar Network.dyn_peer[208] 	lookupTimeSig:mean 	1.4125
scalar Network.dyn_peer[208] 	lookupStabilitySig:mean 	0.93198848050088
scalar Network.dyn_peer[208] 	lookupHopsSig:mean 	13.25
scalar Network.dyn_peer[209] 	lookupTimeSig:mean 	1.1
scalar Network.dyn_peer[209] 	lookupStabilitySig:mean 	0.74492897242308
scalar Network.dyn_peer[209] 	lookupHopsSig:mean 	10.2
scalar Network.dyn_peer[210] 	lookupTimeSig:mean 	1
scalar Network.dyn_peer[210] 	lookupStabilitySig:mean 	0.66869362940391
scalar Network.dyn_peer[210] 	lookupHopsSig:mean 	9.3333333333333
scalar Network.dyn_peer[211] 	lookupTimeSig:mean 	0.96363636363636
scalar Network.dyn_peer[211] 	lookupStabilitySig:mean 	0.82239358613945
scalar Network.dyn_peer[211] 	lookupHopsSig:mean 	8.7272727272727
scalar Network.dyn_peer[212] 	lookupTimeSig:mean 	0.9
scalar Network.dyn_peer[212] 	lookupStabilitySig:mean 	-0.064705908298492
scalar Network.dyn_peer[212] 	lookupHopsSig:mean 	8.5
scalar Network.dyn_peer[213] 	lookupTimeSig:mean 	1.3
scalar Network.dyn_peer[213] 	lookupStabilitySig:mean 	0.53563389182091
scalar Network.dyn_peer[213] 	lookupHopsSig:mean 	12.333333333333
scalar Network.dyn_peer[214] 	lookupTimeSig:mean 	2
scalar Network.dyn_peer[214] 	lookupStabilitySig:mean 	0.42962325115999
scalar Network.dyn_peer[214] 	lookupHopsSig:mean 	19.333333333333
scalar Network.dyn_peer[215] 	lookupTimeSig:mean 	0.7
scalar Network.dyn_peer[215] 	lookupStabilitySig:mean 	0.57969347760081
scalar Network.dyn_peer[215] 	lookupHopsSig:mean 	6.25
scalar Network.dyn_peer[216] 	lookupTimeSig:mean 	0.92857142857143
scalar Network.dyn_peer[216] 	lookupStabilitySig:mean 	0.85438168208514
scalar Network.dyn_peer[216] 	lookupHopsSig:mean 	8.4285714285714
scalar Network.dyn_peer[217] 	lookupTimeSig:mean 	0.825
scalar Network.dyn_peer[217] 	lookupStabilitySig:mean 	0.49115868192166
scalar Network.dyn_peer[217] 	lookupHopsSig:mean 	7.5
scalar Network.dyn_peer[218] 	lookupTimeSig:mean 	1.425
scalar Network.dyn_peer[218] 	lookupStabilitySig:mean 	0.61998458392918
scalar Network.dyn_peer[218] 	lookupHopsSig:mean 	13.5
scalar Network.dyn_peer[219] 	lookupTimeSig:mean 	1.6333333333333
scalar Network.dyn_peer[219] 	lookupStabilitySig:mean 	0.52190126478672
scalar Network.dyn_peer[219] 	lookupHopsSig:mean 	15.666666666667
scalar Network.dyn_peer[220] 	lookupTimeSig:mean 	0.92857142857143
scalar Network.dyn_peer[220] 	lookupStabilitySig:mean 	0.73276023486895
scalar Network.dyn_peer[220] 	lookupHopsSig:mean 	8.4285714285714
scalar Network.dyn_peer[221] 	lookupTimeSig:mean 	0.8
scalar Network.dyn_peer[221] 	lookupStabilitySig:mean 	0.55127016827464
scalar Network.dyn_peer[221] 	lookupHopsSig:mean 	7.25
scalar Network.dyn_peer[222] 	lookupTimeSig:mean 	0.76
scalar Network.dyn_peer[222] 	lookupStabilitySig:mean 	0.57406823039055
scalar Network.dyn_peer[222] 	lookupHopsSig:mean 	6.8
scalar Network.dyn_peer[223] 	lookupTimeSig:mean 	1.06
scalar Network.dyn_peer[223] 	lookupStabilitySig:mean 	0.6904798656702
scalar Network.dyn_peer[223] 	lookupHopsSig:mean 	9.8
scalar Network.dyn_peer[224] 	lookupTimeSig:mean 	1.1
scalar Network.dyn_peer[224] 	lookupStabilitySig:mean 	0.51172162095706
scalar Network.dyn_peer[224] 	lookupHopsSig:mean 	10.333333333333
scalar Network.dyn_peer[225] 	lookupTimeSig:mean 	0.7
scalar Network.dyn_peer[225] 	lookupStabilitySig:mean 	0.75554591743276
scalar Network.dyn_peer[225] 	lookupHopsSig:mean 	6.125
scalar Network.dyn_peer[226] 	lookupTimeSig:mean 	0.425
scalar Network.dyn_peer[226] 	lookupStabilitySig:mean 	0.51388887315989
scalar Network.dyn_peer[226] 	lookupHopsSig:mean 	3.5
scalar Network.dyn_peer[227] 	lookupTimeSig:mean 	1.1333333333333
scalar Network.dyn_peer[227] 	lookupStabilitySig:mean 	0.54733542352915
scalar Network.dyn_peer[227] 	lookupHopsSig:mean 	10.666666666667
scalar Network.dyn_peer[228] 	lookupTimeSig:mean 	1
scalar Network.dyn_peer[228] 	lookupStabilitySig:mean 	0.75557041876018
scalar Network.dyn_peer[228] 	lookupHopsSig:mean 	9.2
scalar Network.dyn_peer[229] 	lookupTimeSig:mean 	1.0666666666667
scalar Network.dyn_peer[229] 	lookupStabilitySig:mean 	0.91513772308826
scalar Network.dyn_peer[229] 	lookupHopsSig:mean 	9.7777777777778
scalar Network.dyn_peer[230] 	lookupTimeSig:mean 	0.9
scalar Network.dyn_peer[230] 	lookupStabilitySig:mean 	0.69287316625317
scalar Network.dyn_peer[230] 	lookupHopsSig:mean 	8.1666666666667
scalar Network.dyn_peer[231] 	lookupTimeSig:mean 	1.66
scalar Network.dyn_peer[231] 	lookupStabilitySig:mean 	0.91865471806377
scalar Network.dyn_peer[231] 	lookupHopsSig:mean 	15.8
scalar Network.dyn_peer[232] 	lookupTimeSig:mean 	1.25
scalar Network.dyn_peer[232] 	lookupStabilitySig:mean 	0.59174784831703
scalar Network.dyn_peer[232] 	lookupHopsSig:mean 	11.75
scalar Network.dyn_peer[233] 	lookupTimeSig:mean 	0.96666666666667
scalar Network.dyn_peer[233] 	lookupStabilitySig:mean 	0.36111108958721
scalar Network.dyn_peer[233] 	lookupHopsSig:mean 	9
scalar Network.dyn_peer[234] 	lookupTimeSig:mean 	0.825
scalar Network.dyn_peer[234] 	lookupStabilitySig:mean 	0.76835880475119
scalar Network.dyn_peer[234] 	lookupHopsSig:mean 	7.375
scalar Network.dyn_peer[235] 	lookupTimeSig:mean 	0.76666666666667
scalar Network.dyn_peer[235] 	lookupStabilitySig:mean 	0.66616135897736
scalar Network.dyn_peer[235] 	lookupHopsSig:mean 	6.8333333333333
scalar Network.dyn_peer[236] 	lookupTimeSig:mean 	0.9
scalar Network.dyn_peer[236] 	lookupStabilitySig:mean 	0.4838383992513
scalar Network.dyn_peer[236] 	lookupHopsSig:mean 	8.3333333333333
scalar Network.dyn_peer[237] 	lookupTimeSig:mean 	1.1
scalar Network.dyn_peer[237] 	lookupStabilitySig:mean 	0.62632850930095
scalar Network.dyn_peer[237] 	lookupHopsSig:mean 	10.333333333333
scalar Network.dyn_peer[238] 	lookupTimeSig:mean 	0.875
scalar Network.dyn_peer[238] 	lookupStabilitySig:mean 	0.8697166260099
scalar Network.dyn_peer[238] 	lookupHopsSig:mean 	7.875
scalar Network.dyn_peer[239] 	lookupTimeSig:mean 	1.08
scalar Network.dyn_peer[239] 	lookupStabilitySig:mean 	0.85593593269587
scalar Network.dyn_peer[239] 	lookupHopsSig:mean 	10
scalar Network.dyn_peer[240] 	lookupTimeSig:mean 	0.625
scalar Network.dyn_peer[240] 	lookupStabilitySig:mean 	0.53060605563223
scalar Network.dyn_peer[240] 	lookupHopsSig:mean 	5.5
scalar Network.dyn_peer[241] 	lookupTimeSig:mean 	0.7
scalar Network.dyn_peer[241] 	lookupStabilitySig:mean 	0.53749999900659
scalar Network.dyn_peer[241] 	lookupHopsSig:mean 	6.3333333333333
scalar Network.dyn_peer[242] 	lookupTimeSig:mean 	0.825
scalar Network.dyn_peer[242] 	lookupStabilitySig:mean 	0.62595187500119
scalar Network.dyn_peer[242] 	lookupHopsSig:mean 	7.5
scalar Network.dyn_peer[243] 	lookupTimeSig:mean 	1.05
scalar Network.dyn_peer[243] 	lookupStabilitySig:mean 	0.85411391298597
scalar Network.dyn_peer[243] 	lookupHopsSig:mean 	9.5833333333333
scalar Network.dyn_peer[244] 	lookupTimeSig:mean 	0.95555555555556
scalar Network.dyn_peer[244] 	lookupStabilitySig:mean 	0.90906814609965
scalar Network.dyn_peer[244] 	lookupHopsSig:mean 	8.6666666666667
scalar Network.dyn_peer[245] 	lookupTimeSig:mean 	1.45
scalar Network.dyn_peer[245] 	lookupStabilitySig:mean 	0.90245673223399
scalar Network.dyn_peer[245] 	lookupHopsSig:mean 	13.75
scalar Network.dyn_peer[246] 	lookupTimeSig:mean 	1.6
scalar Network.dyn_peer[246] 	lookupStabilitySig:mean 	0.11904761195183
scalar Network.dyn_peer[246] 	lookupHopsSig:mean 	15.5
scalar Network.dyn_peer[247] 	lookupTimeSig:mean 	1.15
scalar Network.dyn_peer[247] 	lookupStabilitySig:mean 	0.71215920569375
scalar Network.dyn_peer[247] 	lookupHopsSig:mean 	10.75
scalar Network.dyn_peer[248] 	lookupTimeSig:mean 	1.13
scalar Network.dyn_peer[248] 	lookupStabilitySig:mean 	0.79216186599806
scalar Network.dyn_peer[248] 	lookupHopsSig:mean 	10.4
scalar Network.dyn_peer[249] 	lookupTimeSig:mean 	1.0555555555556
scalar Network.dyn_peer[249] 	lookupStabilitySig:mean 	0.79867880708641
scalar Network.dyn_peer[249] 	lookupHopsSig:mean 	9.6666666666667
scalar Network.dyn_peer[250] 	lookupTimeSig:mean 	1.0666666666667
scalar Network.dyn_peer[250] 	lookupStabilitySig:mean 	0.79215685992191
scalar Network.dyn_peer[250] 	lookupHopsSig:mean 	10
scalar Network.dyn_peer[251] 	lookupTimeSig:mean 	1.42
scalar Network.dyn_peer[251] 	lookupStabilitySig:mean 	0.91237948387861
scalar Network.dyn_peer[251] 	lookupHopsSig:mean 	13.4
scalar Network.dyn_peer[252] 	lookupTimeSig:mean 	0.9875
scalar Network.dyn_peer[252] 	lookupStabilitySig:mean 	0.93445244984468
scalar Network.dyn_peer[252] 	lookupHopsSig:mean 	9
scalar Network.dyn_peer[253] 	lookupTimeSig:mean 	0.75
scalar Network.dyn_peer[253] 	lookupStabilitySig:mean 	0.21538460254669
scalar Network.dyn_peer[253] 	lookupHopsSig:mean 	7
scalar Network.dyn_peer[254] 	lookupTimeSig:mean 	1.0333333333333
scalar Network.dyn_peer[254] 	lookupStabilitySig:mean 	0.48940405001243
scalar Network.dyn_peer[254] 	lookupHopsSig:mean 	9.6666666666667
scalar Network.dyn_peer[255] 	lookupTimeSig:mean 	0.75
scalar Network.dyn_peer[255] 	lookupStabilitySig:mean 	0.79957563010976
scalar Network.dyn_peer[255] 	lookupHopsSig:mean 	6.625
scalar Network.dyn_peer[256] 	lookupTimeSig:mean 	0.7
scalar Network.dyn_peer[256] 	lookupStabilitySig:mean 	0.53020282909274
scalar Network.dyn_peer[256] 	lookupHopsSig:mean 	6.2
scalar Network.dyn_peer[257] 	lookupTimeSig:mean 	0.97142857142857
scalar Network.dyn_peer[257] 	lookupStabilitySig:mean 	0.8786636817136
scalar Network.dyn_peer[257] 	lookupHopsSig:mean 	8.8571428571429
scalar Network.dyn_peer[258] 	lookupTimeSig:mean 	1.35
scalar Network.dyn_peer[258] 	lookupStabilitySig:mean 	0.56531504355371
scalar Network.dyn_peer[258] 	lookupHopsSig:mean 	12.75
scalar Network.dyn_peer[259] 	lookupTimeSig:mean 	0.825
scalar Network.dyn_peer[259] 	lookupStabilitySig:mean 	0.66111257486045
scalar Network.dyn_peer[259] 	lookupHopsSig:mean 	7.5
scalar Network.dyn_peer[260] 	lookupTimeSig:mean 	1.1888888888889
scalar Network.dyn_peer[260] 	lookupStabilitySig:mean 	0.89390570256445
scalar Network.dyn_peer[260] 	lookupHopsSig:mean 	11
scalar Network.dyn_peer[261] 	lookupTimeSig:mean 	0.95
scalar Network.dyn_peer[261] 	lookupStabilitySig:mean 	0.56262018857524
scalar Network.dyn_peer[261] 	lookupHopsSig:mean 	8.75
scalar Network.dyn_peer[262] 	lookupTimeSig:mean 	0.8125
scalar Network.dyn_peer[262] 	lookupStabilitySig:mean 	0.80225286213681
scalar Network.dyn_peer[262] 	lookupHopsSig:mean 	7.25
scalar Network.dyn_peer[263] 	lookupTimeSig:mean 	1.075
scalar Network.dyn_peer[263] 	lookupStabilitySig:mean 	0.91886889724992
scalar Network.dyn_peer[263] 	lookupHopsSig:mean 	9.875
scalar Network.dyn_peer[264] 	lookupTimeSig:mean 	0.975
scalar Network.dyn_peer[264] 	lookupStabilitySig:mean 	0.62063647247851
scalar Network.dyn_peer[264] 	lookupHopsSig:mean 	9
scalar Network.dyn_peer[265] 	lookupTimeSig:mean 	0.9
scalar Network.dyn_peer[265] 	lookupStabilitySig:mean 	0.80829068007214
scalar Network.dyn_peer[265] 	lookupHopsSig:mean 	8.1428571428571
scalar Network.dyn_peer[266] 	lookupTimeSig:mean 	1.45
scalar Network.dyn_peer[266] 	lookupStabilitySig:mean 	0.69202458159998
scalar Network.dyn_peer[266] 	lookupHopsSig:mean 	13.75
scalar Network.dyn_peer[267] 	lookupTimeSig:mean 	1.0666666666667
scalar Network.dyn_peer[267] 	lookupStabilitySig:mean 	0.37522348264853
scalar Network.dyn_peer[267] 	lookupHopsSig:mean 	10
scalar Network.dyn_peer[268] 	lookupTimeSig:mean 	0.9
scalar Network.dyn_peer[268] 	lookupStabilitySig:mean 	0.80451128605221
scalar Network.dyn_peer[268] 	lookupHopsSig:mean 	8.1428571428571
scalar Network.dyn_peer[269] 	lookupTimeSig:mean 	0.75
scalar Network.dyn_peer[269] 	lookupStabilitySig:mean 	0.53214284358546
scalar Network.dyn_peer[269] 	lookupHopsSig:mean 	6.75
scalar Network.dyn_peer[270] 	lookupTimeSig:mean 	0.5
scalar Network.dyn_peer[270] 	lookupStabilitySig:mean 	0.57222220860422
scalar Network.dyn_peer[270] 	lookupHopsSig:mean 	4.25
scalar Network.dyn_peer[271] 	lookupTimeSig:mean 	0.9
scalar Network.dyn_peer[271] 	lookupStabilitySig:mean 	0.69135636091232
scalar Network.dyn_peer[271] 	lookupHopsSig:mean 	8.3333333333333
scalar Network.dyn_peer[272] 	lookupTimeSig:mean 	1.3222222222222
scalar Network.dyn_peer[272] 	lookupStabilitySig:mean 	0.90931284489731
scalar Network.dyn_peer[272] 	lookupHopsSig:mean 	12.333333333333
scalar Network.dyn_peer[273] 	lookupTimeSig:mean 	1.275
scalar Network.dyn_peer[273] 	lookupStabilitySig:mean 	0.74599433527328
scalar Network.dyn_peer[273] 	lookupHopsSig:mean 	11.875
scalar Network.dyn_peer[274] 	lookupTimeSig:mean 	0.95
scalar Network.dyn_peer[274] 	lookupStabilitySig:mean 	0.82606961547087
scalar Network.dyn_peer[274] 	lookupHopsSig:mean 	8.6666666666667
scalar Network.dyn_peer[275] 	lookupTimeSig:mean 	1.2
scalar Network.dyn_peer[275] 	lookupStabilitySig:mean 	0.8708127984511
scalar Network.dyn_peer[275] 	lookupHopsSig:mean 	11.142857142857
scalar Network.dyn_peer[276] 	lookupTimeSig:mean 	1.24
scalar Network.dyn_peer[276] 	lookupStabilitySig:mean 	0.73101110011339
scalar Network.dyn_peer[276] 	lookupHopsSig:mean 	11.6
scalar Network.dyn_peer[277] 	lookupTimeSig:mean 	1.0166666666667
scalar Network.dyn_peer[277] 	lookupStabilitySig:mean 	0.86048783812051
scalar Network.dyn_peer[277] 	lookupHopsSig:mean 	9.3333333333333
scalar Network.dyn_peer[278] 	lookupTimeSig:mean 	0.7375
scalar Network.dyn_peer[278] 	lookupStabilitySig:mean 	0.80045933218207
scalar Network.dyn_peer[278] 	lookupHopsSig:mean 	6.5
scalar Network.dyn_peer[279] 	lookupTimeSig:mean 	1.4
scalar Network.dyn_peer[279] 	lookupStabilitySig:mean 	0.55103448778391
scalar Network.dyn_peer[279] 	lookupHopsSig:mean 	13.5
scalar Network.dyn_peer[280] 	lookupTimeSig:mean 	0.82
scalar Network.dyn_peer[280] 	lookupStabilitySig:mean 	0.72228566035628
scalar Network.dyn_peer[280] 	lookupHopsSig:mean 	7.4
scalar Network.dyn_peer[281] 	lookupTimeSig:mean 	1.14
scalar Network.dyn_peer[281] 	lookupStabilitySig:mean 	0.82170938402414
scalar Network.dyn_peer[281] 	lookupHopsSig:mean 	10.6
scalar Network.dyn_peer[282] 	lookupTimeSig:mean 	0.97272727272727
scalar Network.dyn_peer[282] 	lookupStabilitySig:mean 	0.82466947257688
scalar Network.dyn_peer[282] 	lookupHopsSig:mean 	8.8181818181818
scalar Network.dyn_peer[283] 	lookupTimeSig:mean 	1.05
scalar Network.dyn_peer[283] 	lookupStabilitySig:mean 	0.73365445931753
scalar Network.dyn_peer[283] 	lookupHopsSig:mean 	9.6666666666667
scalar Network.dyn_peer[284] 	lookupTimeSig:mean 	0.825
scalar Network.dyn_peer[284] 	lookupStabilitySig:mean 	0.58724489435554
scalar Network.dyn_peer[284] 	lookupHopsSig:mean 	7.5
scalar Network.dyn_peer[285] 	lookupTimeSig:mean 	1.0333333333333
scalar Network.dyn_peer[285] 	lookupStabilitySig:mean 	0.42950068910917
scalar Network.dyn_peer[285] 	lookupHopsSig:mean 	9.6666666666667
scalar Network.dyn_peer[286] 	lookupTimeSig:mean 	0.73333333333333
scalar Network.dyn_peer[286] 	lookupStabilitySig:mean 	0.37894734740257
scalar Network.dyn_peer[286] 	lookupHopsSig:mean 	6.6666666666667
scalar Network.dyn_peer[287] 	lookupTimeSig:mean 	1.1
scalar Network.dyn_peer[287] 	lookupStabilitySig:mean 	0.58948453391592
scalar Network.dyn_peer[287] 	lookupHopsSig:mean 	10.333333333333
scalar Network.dyn_peer[288] 	lookupTimeSig:mean 	0.56666666666667
scalar Network.dyn_peer[288] 	lookupStabilitySig:mean 	0.81649433671393
scalar Network.dyn_peer[288] 	lookupHopsSig:mean 	4.7777777777778
scalar Network.dyn_peer[289] 	lookupTimeSig:mean 	0.54
scalar Network.dyn_peer[289] 	lookupStabilitySig:mean 	0.60902563109994
scalar Network.dyn_peer[289] 	lookupHopsSig:mean 	4.6
scalar Network.dyn_peer[290] 	lookupTimeSig:mean 	0.8
scalar Network.dyn_peer[290] 	lookupStabilitySig:mean 	0.50321968831122
scalar Network.dyn_peer[290] 	lookupHopsSig:mean 	7.25
scalar Network.dyn_peer[291] 	lookupTimeSig:mean 	0.95
scalar Network.dyn_peer[291] 	lookupStabilitySig:mean 	0.76309493742883
scalar Network.dyn_peer[291] 	lookupHopsSig:mean 	8.6666666666667
scalar Network.dyn_peer[292] 	lookupTimeSig:mean 	1
scalar Network.dyn_peer[292] 	lookupStabilitySig:mean 	0.51901243254542
scalar Network.dyn_peer[292] 	lookupHopsSig:mean 	9.3333333333333
scalar Network.dyn_peer[293] 	lookupTimeSig:mean 	0.9
scalar Network.dyn_peer[293] 	lookupStabilitySig:mean 	0.42941174656153
scalar Network.dyn_peer[293] 	lookupHopsSig:mean 	8.3333333333333
scalar Network.dyn_peer[294] 	lookupTimeSig:mean 	1.175
scalar Network.dyn_peer[294] 	lookupStabilitySig:mean 	0.8183908861829
scalar Network.dyn_peer[294] 	lookupHopsSig:mean 	11
scalar Network.dyn_peer[295] 	lookupTimeSig:mean 	1.2333333333333
scalar Network.dyn_peer[295] 	lookupStabilitySig:mean 	0.76995219662786
scalar Network.dyn_peer[295] 	lookupHopsSig:mean 	11.666666666667
scalar Network.dyn_peer[296] 	lookupTimeSig:mean 	1.0833333333333
scalar Network.dyn_peer[296] 	lookupStabilitySig:mean 	0.89431763719767
scalar Network.dyn_peer[296] 	lookupHopsSig:mean 	10
scalar Network.dyn_peer[297] 	lookupTimeSig:mean 	1.1
scalar Network.dyn_peer[297] 	lookupStabilitySig:mean 	0.72134391715129
scalar Network.dyn_peer[297] 	lookupHopsSig:mean 	10.166666666667
scalar Network.dyn_peer[298] 	lookupTimeSig:mean 	1.1333333333333
scalar Network.dyn_peer[298] 	lookupStabilitySig:mean 	0.41593657682339
scalar Network.dyn_peer[298] 	lookupHopsSig:mean 	10.666666666667
scalar Network.dyn_peer[299] 	lookupTimeSig:mean 	1
scalar Network.dyn_peer[299] 	lookupStabilitySig:mean 	0.85744470031932
scalar Network.dyn_peer[299] 	lookupHopsSig:mean 	9.125
scalar Network.dyn_peer[300] 	lookupTimeSig:mean 	-nan
scalar Network.dyn_peer[300] 	lookupStabilitySig:mean 	-nan
scalar Network.dyn_peer[300] 	lookupHopsSig:mean 	-nan
scalar Network.dyn_peer[301] 	lookupTimeSig:mean 	-nan
scalar Network.dyn_peer[301] 	lookupStabilitySig:mean 	-nan
scalar Network.dyn_peer[301] 	lookupHopsSig:mean 	-nan
scalar Network.dyn_peer[302] 	lookupTimeSig:mean 	-nan
scalar Network.dyn_peer[302] 	lookupStabilitySig:mean 	-nan
scalar Network.dyn_peer[302] 	lookupHopsSig:mean 	-nan
scalar Network.dyn_peer[303] 	lookupTimeSig:mean 	-nan
scalar Network.dyn_peer[303] 	lookupStabilitySig:mean 	-nan
scalar Network.dyn_peer[303] 	lookupHopsSig:mean 	-nan
scalar Network.dyn_peer[304] 	lookupTimeSig:mean 	-nan
scalar Network.dyn_peer[304] 	lookupStabilitySig:mean 	-nan
scalar Network.dyn_peer[304] 	lookupHopsSig:mean 	-nan
scalar Network.dyn_peer[305] 	lookupTimeSig:mean 	-nan
scalar Network.dyn_peer[305] 	lookupStabilitySig:mean 	-nan
scalar Network.dyn_peer[305] 	lookupHopsSig:mean 	-nan
scalar Network.dyn_peer[306] 	lookupTimeSig:mean 	-nan
scalar Network.dyn_peer[306] 	lookupStabilitySig:mean 	-nan
scalar Network.dyn_peer[306] 	lookupHopsSig:mean 	-nan
scalar Network.dyn_peer[307] 	lookupTimeSig:mean 	-nan
scalar Network.dyn_peer[307] 	lookupStabilitySig:mean 	-nan
scalar Network.dyn_peer[307] 	lookupHopsSig:mean 	-nan
scalar Network.dyn_peer[308] 	lookupTimeSig:mean 	-nan
scalar Network.dyn_peer[308] 	lookupStabilitySig:mean 	-nan
scalar Network.dyn_peer[308] 	lookupHopsSig:mean 	-nan
scalar Network.dyn_peer[309] 	lookupTimeSig:mean 	-nan
scalar Network.dyn_peer[309] 	lookupStabilitySig:mean 	-nan
scalar Network.dyn_peer[309] 	lookupHopsSig:mean 	-nan
scalar Network.dyn_peer[310] 	lookupTimeSig:mean 	-nan
scalar Network.dyn_peer[310] 	lookupStabilitySig:mean 	-nan
scalar Network.dyn_peer[310] 	lookupHopsSig:mean 	-nan
scalar Network.dyn_peer[311] 	lookupTimeSig:mean 	-nan
scalar Network.dyn_peer[311] 	lookupStabilitySig:mean 	-nan
scalar Network.dyn_peer[311] 	lookupHopsSig:mean 	-nan
scalar Network.dyn_peer[312] 	lookupTimeSig:mean 	-nan
scalar Network.dyn_peer[312] 	lookupStabilitySig:mean 	-nan
scalar Network.dyn_peer[312] 	lookupHopsSig:mean 	-nan
scalar Network.dyn_peer[313] 	lookupTimeSig:mean 	-nan
scalar Network.dyn_peer[313] 	lookupStabilitySig:mean 	-nan
scalar Network.dyn_peer[313] 	lookupHopsSig:mean 	-nan
scalar Network.dyn_peer[314] 	lookupTimeSig:mean 	-nan
scalar Network.dyn_peer[314] 	lookupStabilitySig:mean 	-nan
scalar Network.dyn_peer[314] 	lookupHopsSig:mean 	-nan
scalar Network.dyn_peer[315] 	lookupTimeSig:mean 	-nan
scalar Network.dyn_peer[315] 	lookupStabilitySig:mean 	-nan
scalar Network.dyn_peer[315] 	lookupHopsSig:mean 	-nan
scalar Network.dyn_peer[316] 	lookupTimeSig:mean 	-nan
scalar Network.dyn_peer[316] 	lookupStabilitySig:mean 	-nan
scalar Network.dyn_peer[316] 	lookupHopsSig:mean 	-nan
scalar Network.dyn_peer[317] 	lookupTimeSig:mean 	-nan
scalar Network.dyn_peer[317] 	lookupStabilitySig:mean 	-nan
scalar Network.dyn_peer[317] 	lookupHopsSig:mean 	-nan
scalar Network.dyn_peer[318] 	lookupTimeSig:mean 	-nan
scalar Network.dyn_peer[318] 	lookupStabilitySig:mean 	-nan
scalar Network.dyn_peer[318] 	lookupHopsSig:mean 	-nan
scalar Network.dyn_peer[319] 	lookupTimeSig:mean 	-nan
scalar Network.dyn_peer[319] 	lookupStabilitySig:mean 	-nan
scalar Network.dyn_peer[319] 	lookupHopsSig:mean 	-nan
scalar Network.dyn_peer[320] 	lookupTimeSig:mean 	-nan
scalar Network.dyn_peer[320] 	lookupStabilitySig:mean 	-nan
scalar Network.dyn_peer[320] 	lookupHopsSig:mean 	-nan
scalar Network.dyn_peer[321] 	lookupTimeSig:mean 	-nan
scalar Network.dyn_peer[321] 	lookupStabilitySig:mean 	-nan
scalar Network.dyn_peer[321] 	lookupHopsSig:mean 	-nan
scalar Network.dyn_peer[322] 	lookupTimeSig:mean 	-nan
scalar Network.dyn_peer[322] 	lookupStabilitySig:mean 	-nan
scalar Network.dyn_peer[322] 	lookupHopsSig:mean 	-nan
scalar Network.dyn_peer[323] 	lookupTimeSig:mean 	-nan
scalar Network.dyn_peer[323] 	lookupStabilitySig:mean 	-nan
scalar Network.dyn_peer[323] 	lookupHopsSig:mean 	-nan
scalar Network.dyn_peer[324] 	lookupTimeSig:mean 	-nan
scalar Network.dyn_peer[324] 	lookupStabilitySig:mean 	-nan
scalar Network.dyn_peer[324] 	lookupHopsSig:mean 	-nan
scalar Network.dyn_peer[325] 	lookupTimeSig:mean 	-nan
scalar Network.dyn_peer[325] 	lookupStabilitySig:mean 	-nan
scalar Network.dyn_peer[325] 	lookupHopsSig:mean 	-nan
scalar Network.dyn_peer[326] 	lookupTimeSig:mean 	-nan
scalar Network.dyn_peer[326] 	lookupStabilitySig:mean 	-nan
scalar Network.dyn_peer[326] 	lookupHopsSig:mean 	-nan
scalar Network.dyn_peer[327] 	lookupTimeSig:mean 	-nan
scalar Network.dyn_peer[327] 	lookupStabilitySig:mean 	-nan
scalar Network.dyn_peer[327] 	lookupHopsSig:mean 	-nan
scalar Network.dyn_peer[328] 	lookupTimeSig:mean 	-nan
scalar Network.dyn_peer[328] 	lookupStabilitySig:mean 	-nan
scalar Network.dyn_peer[328] 	lookupHopsSig:mean 	-nan
scalar Network.dyn_peer[329] 	lookupTimeSig:mean 	-nan
scalar Network.dyn_peer[329] 	lookupStabilitySig:mean 	-nan
scalar Network.dyn_peer[329] 	lookupHopsSig:mean 	-nan
scalar Network.dyn_peer[330] 	lookupTimeSig:mean 	-nan
scalar Network.dyn_peer[330] 	lookupStabilitySig:mean 	-nan
scalar Network.dyn_peer[330] 	lookupHopsSig:mean 	-nan
scalar Network.dyn_peer[331] 	lookupTimeSig:mean 	-nan
scalar Network.dyn_peer[331] 	lookupStabilitySig:mean 	-nan
scalar Network.dyn_peer[331] 	lookupHopsSig:mean 	-nan
scalar Network.dyn_peer[332] 	lookupTimeSig:mean 	-nan
scalar Network.dyn_peer[332] 	lookupStabilitySig:mean 	-nan
scalar Network.dyn_peer[332] 	lookupHopsSig:mean 	-nan
scalar Network.dyn_peer[333] 	lookupTimeSig:mean 	-nan
scalar Network.dyn_peer[333] 	lookupStabilitySig:mean 	-nan
scalar Network.dyn_peer[333] 	lookupHopsSig:mean 	-nan
scalar Network.dyn_peer[334] 	lookupTimeSig:mean 	-nan
scalar Network.dyn_peer[334] 	lookupStabilitySig:mean 	-nan
scalar Network.dyn_peer[334] 	lookupHopsSig:mean 	-nan
scalar Network.dyn_peer[335] 	lookupTimeSig:mean 	-nan
scalar Network.dyn_peer[335] 	lookupStabilitySig:mean 	-nan
scalar Network.dyn_peer[335] 	lookupHopsSig:mean 	-nan
scalar Network.dyn_peer[336] 	lookupTimeSig:mean 	-nan
scalar Network.dyn_peer[336] 	lookupStabilitySig:mean 	-nan
scalar Network.dyn_peer[336] 	lookupHopsSig:mean 	-nan
scalar Network.dyn_peer[337] 	lookupTimeSig:mean 	-nan
scalar Network.dyn_peer[337] 	lookupStabilitySig:mean 	-nan
scalar Network.dyn_peer[337] 	lookupHopsSig:mean 	-nan
scalar Network.dyn_peer[338] 	lookupTimeSig:mean 	-nan
scalar Network.dyn_peer[338] 	lookupStabilitySig:mean 	-nan
scalar Network.dyn_peer[338] 	lookupHopsSig:mean 	-nan
scalar Network.dyn_peer[339] 	lookupTimeSig:mean 	-nan
scalar Network.dyn_peer[339] 	lookupStabilitySig:mean 	-nan
scalar Network.dyn_peer[339] 	lookupHopsSig:mean 	-nan
scalar Network.dyn_peer[340] 	lookupTimeSig:mean 	-nan
scalar Network.dyn_peer[340] 	lookupStabilitySig:mean 	-nan
scalar Network.dyn_peer[340] 	lookupHopsSig:mean 	-nan
scalar Network.dyn_peer[341] 	lookupTimeSig:mean 	-nan
scalar Network.dyn_peer[341] 	lookupStabilitySig:mean 	-nan
scalar Network.dyn_peer[341] 	lookupHopsSig:mean 	-nan
scalar Network.dyn_peer[342] 	lookupTimeSig:mean 	-nan
scalar Network.dyn_peer[342] 	lookupStabilitySig:mean 	-nan
scalar Network.dyn_peer[342] 	lookupHopsSig:mean 	-nan
scalar Network.dyn_peer[343] 	lookupTimeSig:mean 	-nan
scalar Network.dyn_peer[343] 	lookupStabilitySig:mean 	-nan
scalar Network.dyn_peer[343] 	lookupHopsSig:mean 	-nan
scalar Network.dyn_peer[344] 	lookupTimeSig:mean 	-nan
scalar Network.dyn_peer[344] 	lookupStabilitySig:mean 	-nan
scalar Network.dyn_peer[344] 	lookupHopsSig:mean 	-nan
scalar Network.dyn_peer[345] 	lookupTimeSig:mean 	-nan
scalar Network.dyn_peer[345] 	lookupStabilitySig:mean 	-nan
scalar Network.dyn_peer[345] 	lookupHopsSig:mean 	-nan
scalar Network.dyn_peer[346] 	lookupTimeSig:mean 	-nan
scalar Network.dyn_peer[346] 	lookupStabilitySig:mean 	-nan
scalar Network.dyn_peer[346] 	lookupHopsSig:mean 	-nan
scalar Network.dyn_peer[347] 	lookupTimeSig:mean 	-nan
scalar Network.dyn_peer[347] 	lookupStabilitySig:mean 	-nan
scalar Network.dyn_peer[347] 	lookupHopsSig:mean 	-nan
scalar Network.dyn_peer[348] 	lookupTimeSig:mean 	-nan
scalar Network.dyn_peer[348] 	lookupStabilitySig:mean 	-nan
scalar Network.dyn_peer[348] 	lookupHopsSig:mean 	-nan
scalar Network.dyn_peer[349] 	lookupTimeSig:mean 	-nan
scalar Network.dyn_peer[349] 	lookupStabilitySig:mean 	-nan
scalar Network.dyn_peer[349] 	lookupHopsSig:mean 	-nan
scalar Network.dyn_peer[350] 	lookupTimeSig:mean 	-nan
scalar Network.dyn_peer[350] 	lookupStabilitySig:mean 	-nan
scalar Network.dyn_peer[350] 	lookupHopsSig:mean 	-nan
scalar Network.dyn_peer[351] 	lookupTimeSig:mean 	-nan
scalar Network.dyn_peer[351] 	lookupStabilitySig:mean 	-nan
scalar Network.dyn_peer[351] 	lookupHopsSig:mean 	-nan
scalar Network.dyn_peer[352] 	lookupTimeSig:mean 	-nan
scalar Network.dyn_peer[352] 	lookupStabilitySig:mean 	-nan
scalar Network.dyn_peer[352] 	lookupHopsSig:mean 	-nan
scalar Network.dyn_peer[353] 	lookupTimeSig:mean 	-nan
scalar Network.dyn_peer[353] 	lookupStabilitySig:mean 	-nan
scalar Network.dyn_peer[353] 	lookupHopsSig:mean 	-nan
scalar Network.dyn_peer[354] 	lookupTimeSig:mean 	-nan
scalar Network.dyn_peer[354] 	lookupStabilitySig:mean 	-nan
scalar Network.dyn_peer[354] 	lookupHopsSig:mean 	-nan
scalar Network.dyn_peer[355] 	lookupTimeSig:mean 	-nan
scalar Network.dyn_peer[355] 	lookupStabilitySig:mean 	-nan
scalar Network.dyn_peer[355] 	lookupHopsSig:mean 	-nan
scalar Network.dyn_peer[356] 	lookupTimeSig:mean 	-nan
scalar Network.dyn_peer[356] 	lookupStabilitySig:mean 	-nan
scalar Network.dyn_peer[356] 	lookupHopsSig:mean 	-nan
scalar Network.dyn_peer[357] 	lookupTimeSig:mean 	-nan
scalar Network.dyn_peer[357] 	lookupStabilitySig:mean 	-nan
scalar Network.dyn_peer[357] 	lookupHopsSig:mean 	-nan
scalar Network.dyn_peer[358] 	lookupTimeSig:mean 	-nan
scalar Network.dyn_peer[358] 	lookupStabilitySig:mean 	-nan
scalar Network.dyn_peer[358] 	lookupHopsSig:mean 	-nan
scalar Network.dyn_peer[359] 	lookupTimeSig:mean 	-nan
scalar Network.dyn_peer[359] 	lookupStabilitySig:mean 	-nan
scalar Network.dyn_peer[359] 	lookupHopsSig:mean 	-nan
scalar Network.dyn_peer[360] 	lookupTimeSig:mean 	-nan
scalar Network.dyn_peer[360] 	lookupStabilitySig:mean 	-nan
scalar Network.dyn_peer[360] 	lookupHopsSig:mean 	-nan
scalar Network.dyn_peer[361] 	lookupTimeSig:mean 	-nan
scalar Network.dyn_peer[361] 	lookupStabilitySig:mean 	-nan
scalar Network.dyn_peer[361] 	lookupHopsSig:mean 	-nan
scalar Network.dyn_peer[362] 	lookupTimeSig:mean 	-nan
scalar Network.dyn_peer[362] 	lookupStabilitySig:mean 	-nan
scalar Network.dyn_peer[362] 	lookupHopsSig:mean 	-nan
scalar Network.dyn_peer[363] 	lookupTimeSig:mean 	-nan
scalar Network.dyn_peer[363] 	lookupStabilitySig:mean 	-nan
scalar Network.dyn_peer[363] 	lookupHopsSig:mean 	-nan
scalar Network.dyn_peer[364] 	lookupTimeSig:mean 	-nan
scalar Network.dyn_peer[364] 	lookupStabilitySig:mean 	-nan
scalar Network.dyn_peer[364] 	lookupHopsSig:mean 	-nan
scalar Network.dyn_peer[365] 	lookupTimeSig:mean 	-nan
scalar Network.dyn_peer[365] 	lookupStabilitySig:mean 	-nan
scalar Network.dyn_peer[365] 	lookupHopsSig:mean 	-nan
scalar Network.dyn_peer[366] 	lookupTimeSig:mean 	-nan
scalar Network.dyn_peer[366] 	lookupStabilitySig:mean 	-nan
scalar Network.dyn_peer[366] 	lookupHopsSig:mean 	-nan
scalar Network.dyn_peer[367] 	lookupTimeSig:mean 	-nan
scalar Network.dyn_peer[367] 	lookupStabilitySig:mean 	-nan
scalar Network.dyn_peer[367] 	lookupHopsSig:mean 	-nan
scalar Network.dyn_peer[368] 	lookupTimeSig:mean 	-nan
scalar Network.dyn_peer[368] 	lookupStabilitySig:mean 	-nan
scalar Network.dyn_peer[368] 	lookupHopsSig:mean 	-nan
scalar Network.dyn_peer[369] 	lookupTimeSig:mean 	-nan
scalar Network.dyn_peer[369] 	lookupStabilitySig:mean 	-nan
scalar Network.dyn_peer[369] 	lookupHopsSig:mean 	-nan
scalar Network.dyn_peer[370] 	lookupTimeSig:mean 	-nan
scalar Network.dyn_peer[370] 	lookupStabilitySig:mean 	-nan
scalar Network.dyn_peer[370] 	lookupHopsSig:mean 	-nan
scalar Network.dyn_peer[371] 	lookupTimeSig:mean 	-nan
scalar Network.dyn_peer[371] 	lookupStabilitySig:mean 	-nan
scalar Network.dyn_peer[371] 	lookupHopsSig:mean 	-nan
scalar Network.dyn_peer[372] 	lookupTimeSig:mean 	-nan
scalar Network.dyn_peer[372] 	lookupStabilitySig:mean 	-nan
scalar Network.dyn_peer[372] 	lookupHopsSig:mean 	-nan
scalar Network.dyn_peer[373] 	lookupTimeSig:mean 	-nan
scalar Network.dyn_peer[373] 	lookupStabilitySig:mean 	-nan
scalar Network.dyn_peer[373] 	lookupHopsSig:mean 	-nan
scalar Network.dyn_peer[374] 	lookupTimeSig:mean 	-nan
scalar Network.dyn_peer[374] 	lookupStabilitySig:mean 	-nan
scalar Network.dyn_peer[374] 	lookupHopsSig:mean 	-nan
scalar Network.dyn_peer[375] 	lookupTimeSig:mean 	-nan
scalar Network.dyn_peer[375] 	lookupStabilitySig:mean 	-nan
scalar Network.dyn_peer[375] 	lookupHopsSig:mean 	-nan
scalar Network.dyn_peer[376] 	lookupTimeSig:mean 	-nan
scalar Network.dyn_peer[376] 	lookupStabilitySig:mean 	-nan
scalar Network.dyn_peer[376] 	lookupHopsSig:mean 	-nan
scalar Network.dyn_peer[377] 	lookupTimeSig:mean 	-nan
scalar Network.dyn_peer[377] 	lookupStabilitySig:mean 	-nan
scalar Network.dyn_peer[377] 	lookupHopsSig:mean 	-nan
scalar Network.dyn_peer[378] 	lookupTimeSig:mean 	-nan
scalar Network.dyn_peer[378] 	lookupStabilitySig:mean 	-nan
scalar Network.dyn_peer[378] 	lookupHopsSig:mean 	-nan
scalar Network.dyn_peer[379] 	lookupTimeSig:mean 	-nan
scalar Network.dyn_peer[379] 	lookupStabilitySig:mean 	-nan
scalar Network.dyn_peer[379] 	lookupHopsSig:mean 	-nan
scalar Network.dyn_peer[380] 	lookupTimeSig:mean 	-nan
scalar Network.dyn_peer[380] 	lookupStabilitySig:mean 	-nan
scalar Network.dyn_peer[380] 	lookupHopsSig:mean 	-nan
scalar Network.dyn_peer[381] 	lookupTimeSig:mean 	-nan
scalar Network.dyn_peer[381] 	lookupStabilitySig:mean 	-nan
scalar Network.dyn_peer[381] 	lookupHopsSig:mean 	-nan
scalar Network.dyn_peer[382] 	lookupTimeSig:mean 	-nan
scalar Network.dyn_peer[382] 	lookupStabilitySig:mean 	-nan
scalar Network.dyn_peer[382] 	lookupHopsSig:mean 	-nan
scalar Network.dyn_peer[383] 	lookupTimeSig:mean 	-nan
scalar Network.dyn_peer[383] 	lookupStabilitySig:mean 	-nan
scalar Network.dyn_peer[383] 	lookupHopsSig:mean 	-nan
scalar Network.dyn_peer[384] 	lookupTimeSig:mean 	-nan
scalar Network.dyn_peer[384] 	lookupStabilitySig:mean 	-nan
scalar Network.dyn_peer[384] 	lookupHopsSig:mean 	-nan
scalar Network.dyn_peer[385] 	lookupTimeSig:mean 	-nan
scalar Network.dyn_peer[385] 	lookupStabilitySig:mean 	-nan
scalar Network.dyn_peer[385] 	lookupHopsSig:mean 	-nan
scalar Network.dyn_peer[386] 	lookupTimeSig:mean 	-nan
scalar Network.dyn_peer[386] 	lookupStabilitySig:mean 	-nan
scalar Network.dyn_peer[386] 	lookupHopsSig:mean 	-nan
scalar Network.dyn_peer[387] 	lookupTimeSig:mean 	-nan
scalar Network.dyn_peer[387] 	lookupStabilitySig:mean 	-nan
scalar Network.dyn_peer[387] 	lookupHopsSig:mean 	-nan
scalar Network.dyn_peer[388] 	lookupTimeSig:mean 	-nan
scalar Network.dyn_peer[388] 	lookupStabilitySig:mean 	-nan
scalar Network.dyn_peer[388] 	lookupHopsSig:mean 	-nan
scalar Network.dyn_peer[389] 	lookupTimeSig:mean 	-nan
scalar Network.dyn_peer[389] 	lookupStabilitySig:mean 	-nan
scalar Network.dyn_peer[389] 	lookupHopsSig:mean 	-nan
scalar Network.dyn_peer[390] 	lookupTimeSig:mean 	-nan
scalar Network.dyn_peer[390] 	lookupStabilitySig:mean 	-nan
scalar Network.dyn_peer[390] 	lookupHopsSig:mean 	-nan
scalar Network.dyn_peer[391] 	lookupTimeSig:mean 	-nan
scalar Network.dyn_peer[391] 	lookupStabilitySig:mean 	-nan
scalar Network.dyn_peer[391] 	lookupHopsSig:mean 	-nan
scalar Network.dyn_peer[392] 	lookupTimeSig:mean 	-nan
scalar Network.dyn_peer[392] 	lookupStabilitySig:mean 	-nan
scalar Network.dyn_peer[392] 	lookupHopsSig:mean 	-nan
scalar Network.dyn_peer[393] 	lookupTimeSig:mean 	-nan
scalar Network.dyn_peer[393] 	lookupStabilitySig:mean 	-nan
scalar Network.dyn_peer[393] 	lookupHopsSig:mean 	-nan
scalar Network.dyn_peer[394] 	lookupTimeSig:mean 	-nan
scalar Network.dyn_peer[394] 	lookupStabilitySig:mean 	-nan
scalar Network.dyn_peer[394] 	lookupHopsSig:mean 	-nan
scalar Network.dyn_peer[395] 	lookupTimeSig:mean 	-nan
scalar Network.dyn_peer[395] 	lookupStabilitySig:mean 	-nan
scalar Network.dyn_peer[395] 	lookupHopsSig:mean 	-nan
scalar Network.dyn_peer[396] 	lookupTimeSig:mean 	-nan
scalar Network.dyn_peer[396] 	lookupStabilitySig:mean 	-nan
scalar Network.dyn_peer[396] 	lookupHopsSig:mean 	-nan
scalar Network.dyn_peer[397] 	lookupTimeSig:mean 	-nan
scalar Network.dyn_peer[397] 	lookupStabilitySig:mean 	-nan
scalar Network.dyn_peer[397] 	lookupHopsSig:mean 	-nan
scalar Network.dyn_peer[398] 	lookupTimeSig:mean 	-nan
scalar Network.dyn_peer[398] 	lookupStabilitySig:mean 	-nan
scalar Network.dyn_peer[398] 	lookupHopsSig:mean 	-nan
scalar Network.dyn_peer[399] 	lookupTimeSig:mean 	-nan
scalar Network.dyn_peer[399] 	lookupStabilitySig:mean 	-nan
scalar Network.dyn_peer[399] 	lookupHopsSig:mean 	-nan
scalar Network.dyn_peer[400] 	lookupTimeSig:mean 	-nan
scalar Network.dyn_peer[400] 	lookupStabilitySig:mean 	-nan
scalar Network.dyn_peer[400] 	lookupHopsSig:mean 	-nan
scalar Network.dyn_peer[401] 	lookupTimeSig:mean 	-nan
scalar Network.dyn_peer[401] 	lookupStabilitySig:mean 	-nan
scalar Network.dyn_peer[401] 	lookupHopsSig:mean 	-nan
scalar Network.dyn_peer[402] 	lookupTimeSig:mean 	-nan
scalar Network.dyn_peer[402] 	lookupStabilitySig:mean 	-nan
scalar Network.dyn_peer[402] 	lookupHopsSig:mean 	-nan
scalar Network.dyn_peer[403] 	lookupTimeSig:mean 	-nan
scalar Network.dyn_peer[403] 	lookupStabilitySig:mean 	-nan
scalar Network.dyn_peer[403] 	lookupHopsSig:mean 	-nan
scalar Network.dyn_peer[404] 	lookupTimeSig:mean 	-nan
scalar Network.dyn_peer[404] 	lookupStabilitySig:mean 	-nan
scalar Network.dyn_peer[404] 	lookupHopsSig:mean 	-nan
scalar Network.dyn_peer[405] 	lookupTimeSig:mean 	-nan
scalar Network.dyn_peer[405] 	lookupStabilitySig:mean 	-nan
scalar Network.dyn_peer[405] 	lookupHopsSig:mean 	-nan
scalar Network.dyn_peer[406] 	lookupTimeSig:mean 	-nan
scalar Network.dyn_peer[406] 	lookupStabilitySig:mean 	-nan
scalar Network.dyn_peer[406] 	lookupHopsSig:mean 	-nan
scalar Network.dyn_peer[407] 	lookupTimeSig:mean 	-nan
scalar Network.dyn_peer[407] 	lookupStabilitySig:mean 	-nan
scalar Network.dyn_peer[407] 	lookupHopsSig:mean 	-nan
scalar Network.dyn_peer[408] 	lookupTimeSig:mean 	-nan
scalar Network.dyn_peer[408] 	lookupStabilitySig:mean 	-nan
scalar Network.dyn_peer[408] 	lookupHopsSig:mean 	-nan
scalar Network.dyn_peer[409] 	lookupTimeSig:mean 	-nan
scalar Network.dyn_peer[409] 	lookupStabilitySig:mean 	-nan
scalar Network.dyn_peer[409] 	lookupHopsSig:mean 	-nan
scalar Network.dyn_peer[410] 	lookupTimeSig:mean 	-nan
scalar Network.dyn_peer[410] 	lookupStabilitySig:mean 	-nan
scalar Network.dyn_peer[410] 	lookupHopsSig:mean 	-nan
scalar Network.dyn_peer[411] 	lookupTimeSig:mean 	-nan
scalar Network.dyn_peer[411] 	lookupStabilitySig:mean 	-nan
scalar Network.dyn_peer[411] 	lookupHopsSig:mean 	-nan
scalar Network.dyn_peer[412] 	lookupTimeSig:mean 	-nan
scalar Network.dyn_peer[412] 	lookupStabilitySig:mean 	-nan
scalar Network.dyn_peer[412] 	lookupHopsSig:mean 	-nan
scalar Network.dyn_peer[413] 	lookupTimeSig:mean 	-nan
scalar Network.dyn_peer[413] 	lookupStabilitySig:mean 	-nan
scalar Network.dyn_peer[413] 	lookupHopsSig:mean 	-nan
scalar Network.dyn_peer[414] 	lookupTimeSig:mean 	-nan
scalar Network.dyn_peer[414] 	lookupStabilitySig:mean 	-nan
scalar Network.dyn_peer[414] 	lookupHopsSig:mean 	-nan
scalar Network.dyn_peer[415] 	lookupTimeSig:mean 	-nan
scalar Network.dyn_peer[415] 	lookupStabilitySig:mean 	-nan
scalar Network.dyn_peer[415] 	lookupHopsSig:mean 	-nan
scalar Network.dyn_peer[416] 	lookupTimeSig:mean 	-nan
scalar Network.dyn_peer[416] 	lookupStabilitySig:mean 	-nan
scalar Network.dyn_peer[416] 	lookupHopsSig:mean 	-nan
scalar Network.dyn_peer[417] 	lookupTimeSig:mean 	-nan
scalar Network.dyn_peer[417] 	lookupStabilitySig:mean 	-nan
scalar Network.dyn_peer[417] 	lookupHopsSig:mean 	-nan
scalar Network.dyn_peer[418] 	lookupTimeSig:mean 	-nan
scalar Network.dyn_peer[418] 	lookupStabilitySig:mean 	-nan
scalar Network.dyn_peer[418] 	lookupHopsSig:mean 	-nan
scalar Network.dyn_peer[419] 	lookupTimeSig:mean 	-nan
scalar Network.dyn_peer[419] 	lookupStabilitySig:mean 	-nan
scalar Network.dyn_peer[419] 	lookupHopsSig:mean 	-nan
scalar Network.dyn_peer[420] 	lookupTimeSig:mean 	-nan
scalar Network.dyn_peer[420] 	lookupStabilitySig:mean 	-nan
scalar Network.dyn_peer[420] 	lookupHopsSig:mean 	-nan
scalar Network.dyn_peer[421] 	lookupTimeSig:mean 	-nan
scalar Network.dyn_peer[421] 	lookupStabilitySig:mean 	-nan
scalar Network.dyn_peer[421] 	lookupHopsSig:mean 	-nan
scalar Network.dyn_peer[422] 	lookupTimeSig:mean 	-nan
scalar Network.dyn_peer[422] 	lookupStabilitySig:mean 	-nan
scalar Network.dyn_peer[422] 	lookupHopsSig:mean 	-nan
scalar Network.dyn_peer[423] 	lookupTimeSig:mean 	-nan
scalar Network.dyn_peer[423] 	lookupStabilitySig:mean 	-nan
scalar Network.dyn_peer[423] 	lookupHopsSig:mean 	-nan
scalar Network.dyn_peer[424] 	lookupTimeSig:mean 	-nan
scalar Network.dyn_peer[424] 	lookupStabilitySig:mean 	-nan
scalar Network.dyn_peer[424] 	lookupHopsSig:mean 	-nan
scalar Network.dyn_peer[425] 	lookupTimeSig:mean 	-nan
scalar Network.dyn_peer[425] 	lookupStabilitySig:mean 	-nan
scalar Network.dyn_peer[425] 	lookupHopsSig:mean 	-nan
scalar Network.dyn_peer[426] 	lookupTimeSig:mean 	-nan
scalar Network.dyn_peer[426] 	lookupStabilitySig:mean 	-nan
scalar Network.dyn_peer[426] 	lookupHopsSig:mean 	-nan
scalar Network.dyn_peer[427] 	lookupTimeSig:mean 	-nan
scalar Network.dyn_peer[427] 	lookupStabilitySig:mean 	-nan
scalar Network.dyn_peer[427] 	lookupHopsSig:mean 	-nan
scalar Network.dyn_peer[428] 	lookupTimeSig:mean 	-nan
scalar Network.dyn_peer[428] 	lookupStabilitySig:mean 	-nan
scalar Network.dyn_peer[428] 	lookupHopsSig:mean 	-nan
scalar Network.dyn_peer[429] 	lookupTimeSig:mean 	-nan
scalar Network.dyn_peer[429] 	lookupStabilitySig:mean 	-nan
scalar Network.dyn_peer[429] 	lookupHopsSig:mean 	-nan
scalar Network.dyn_peer[430] 	lookupTimeSig:mean 	-nan
scalar Network.dyn_peer[430] 	lookupStabilitySig:mean 	-nan
scalar Network.dyn_peer[430] 	lookupHopsSig:mean 	-nan
scalar Network.dyn_peer[431] 	lookupTimeSig:mean 	-nan
scalar Network.dyn_peer[431] 	lookupStabilitySig:mean 	-nan
scalar Network.dyn_peer[431] 	lookupHopsSig:mean 	-nan
scalar Network.dyn_peer[432] 	lookupTimeSig:mean 	-nan
scalar Network.dyn_peer[432] 	lookupStabilitySig:mean 	-nan
scalar Network.dyn_peer[432] 	lookupHopsSig:mean 	-nan
scalar Network.dyn_peer[433] 	lookupTimeSig:mean 	-nan
scalar Network.dyn_peer[433] 	lookupStabilitySig:mean 	-nan
scalar Network.dyn_peer[433] 	lookupHopsSig:mean 	-nan
scalar Network.dyn_peer[434] 	lookupTimeSig:mean 	-nan
scalar Network.dyn_peer[434] 	lookupStabilitySig:mean 	-nan
scalar Network.dyn_peer[434] 	lookupHopsSig:mean 	-nan
scalar Network.dyn_peer[435] 	lookupTimeSig:mean 	-nan
scalar Network.dyn_peer[435] 	lookupStabilitySig:mean 	-nan
scalar Network.dyn_peer[435] 	lookupHopsSig:mean 	-nan
scalar Network.dyn_peer[436] 	lookupTimeSig:mean 	-nan
[...]
scalar Network.dyn_peer[883] 	lookupTimeSig:mean 	-nan
scalar Network.dyn_peer[883] 	lookupStabilitySig:mean 	-nan
scalar Network.dyn_peer[883] 	lookupHopsSig:mean 	-nan
scalar Network.dyn_peer[884] 	lookupTimeSig:mean 	-nan
scalar Network.dyn_peer[884] 	lookupStabilitySig:mean 	-nan
scalar Network.dyn_peer[884] 	lookupHopsSig:mean 	-nan
scalar Network.dyn_peer[885] 	lookupTimeSig:mean 	-nan
scalar Network.dyn_peer[885] 	lookupStabilitySig:mean 	-nan
scalar Network.dyn_peer[885] 	lookupHopsSig:mean 	-nan
scalar Network.dyn_peer[886] 	lookupTimeSig:mean 	-nan
scalar Network.dyn_peer[886] 	lookupStabilitySig:mean 	-nan
scalar Network.dyn_peer[886] 	lookupHopsSig:mean 	-nan
scalar Network.dyn_peer[887] 	lookupTimeSig:mean 	-nan
scalar Network.dyn_peer[887] 	lookupStabilitySig:mean 	-nan
scalar Network.dyn_peer[887] 	lookupHopsSig:mean 	-nan
scalar Network.dyn_peer[888] 	lookupTimeSig:mean 	-nan
scalar Network.dyn_peer[888] 	lookupStabilitySig:mean 	-nan
scalar Network.dyn_peer[888] 	lookupHopsSig:mean 	-nan
scalar Network.dyn_peer[889] 	lookupTimeSig:mean 	-nan
scalar Network.dyn_peer[889] 	lookupStabilitySig:mean 	-nan
scalar Network.dyn_peer[889] 	lookupHopsSig:mean 	-nan
scalar Network.dyn_peer[890] 	lookupTimeSig:mean 	-nan
scalar Network.dyn_peer[890] 	lookupStabilitySig:mean 	-nan
scalar Network.dyn_peer[890] 	lookupHopsSig:mean 	-nan
scalar Network.dyn_peer[891] 	lookupTimeSig:mean 	-nan
scalar Network.dyn_peer[891] 	lookupStabilitySig:mean 	-nan
scalar Network.dyn_peer[891] 	lookupHopsSig:mean 	-nan
scalar Network.dyn_peer[892] 	lookupTimeSig:mean 	-nan
scalar Network.dyn_peer[892] 	lookupStabilitySig:mean 	-nan
scalar Network.dyn_peer[892] 	lookupHopsSig:mean 	-nan
scalar Network.dyn_peer[893] 	lookupTimeSig:mean 	-nan
scalar Network.dyn_peer[893] 	lookupStabilitySig:mean 	-nan
scalar Network.dyn_peer[893] 	lookupHopsSig:mean 	-nan
scalar Network.dyn_peer[894] 	lookupTimeSig:mean 	-nan
scalar Network.dyn_peer[894] 	lookupStabilitySig:mean 	-nan
scalar Network.dyn_peer[894] 	lookupHopsSig:mean 	-nan
scalar Network.dyn_peer[895] 	lookupTimeSig:mean 	-nan
scalar Network.dyn_peer[895] 	lookupStabilitySig:mean 	-nan
scalar Network.dyn_peer[895] 	lookupHopsSig:mean 	-nan
scalar Network.dyn_peer[896] 	lookupTimeSig:mean 	-nan
scalar Network.dyn_peer[896] 	lookupStabilitySig:mean 	-nan
scalar Network.dyn_peer[896] 	lookupHopsSig:mean 	-nan
scalar Network.dyn_peer[897] 	lookupTimeSig:mean 	-nan
scalar Network.dyn_peer[897] 	lookupStabilitySig:mean 	-nan
scalar Network.dyn_peer[897] 	lookupHopsSig:mean 	-nan
scalar Network.dyn_peer[898] 	lookupTimeSig:mean 	-nan
scalar Network.dyn_peer[898] 	lookupStabilitySig:mean 	-nan
scalar Network.dyn_peer[898] 	lookupHopsSig:mean 	-nan
scalar Network.dyn_peer[899] 	lookupTimeSig:mean 	-nan
scalar Network.dyn_peer[899] 	lookupStabilitySig:mean 	-nan
scalar Network.dyn_peer[899] 	lookupHopsSig:mean 	-nan
scalar Network.dyn_peer[900] 	lookupTimeSig:mean 	-nan
scalar Network.dyn_peer[900] 	lookupStabilitySig:mean 	-nan
scalar Network.dyn_peer[900] 	lookupHopsSig:mean 	-nan
scalar Network.dyn_peer[901] 	lookupTimeSig:mean 	-nan
scalar Network.dyn_peer[901] 	lookupStabilitySig:mean 	-nan
scalar Network.dyn_peer[901] 	lookupHopsSig:mean 	-nan
scalar Network.dyn_peer[902] 	lookupTimeSig:mean 	-nan
scalar Network.dyn_peer[902] 	lookupStabilitySig:mean 	-nan
scalar Network.dyn_peer[902] 	lookupHopsSig:mean 	-nan
scalar Network.dyn_peer[903] 	lookupTimeSig:mean 	-nan
scalar Network.dyn_peer[903] 	lookupStabilitySig:mean 	-nan
scalar Network.dyn_peer[903] 	lookupHopsSig:mean 	-nan
scalar Network.dyn_peer[904] 	lookupTimeSig:mean 	-nan
scalar Network.dyn_peer[904] 	lookupStabilitySig:mean 	-nan
scalar Network.dyn_peer[904] 	lookupHopsSig:mean 	-nan
scalar Network.dyn_peer[905] 	lookupTimeSig:mean 	-nan
scalar Network.dyn_peer[905] 	lookupStabilitySig:mean 	-nan
scalar Network.dyn_peer[905] 	lookupHopsSig:mean 	-nan
scalar Network.dyn_peer[906] 	lookupTimeSig:mean 	-nan
scalar Network.dyn_peer[906] 	lookupStabilitySig:mean 	-nan
scalar Network.dyn_peer[906] 	lookupHopsSig:mean 	-nan
scalar Network.dyn_peer[907] 	lookupTimeSig:mean 	-nan
scalar Network.dyn_peer[907] 	lookupStabilitySig:mean 	-nan
scalar Network.dyn_peer[907] 	lookupHopsSig:mean 	-nan
scalar Network.dyn_peer[908] 	lookupTimeSig:mean 	-nan
scalar Network.dyn_peer[908] 	lookupStabilitySig:mean 	-nan
scalar Network.dyn_peer[908] 	lookupHopsSig:mean 	-nan
scalar Network.dyn_peer[909] 	lookupTimeSig:mean 	-nan
scalar Network.dyn_peer[909] 	lookupStabilitySig:mean 	-nan
scalar Network.dyn_peer[909] 	lookupHopsSig:mean 	-nan
scalar Network.dyn_peer[910] 	lookupTimeSig:mean 	-nan
scalar Network.dyn_peer[910] 	lookupStabilitySig:mean 	-nan
scalar Network.dyn_peer[910] 	lookupHopsSig:mean 	-nan
scalar Network.dyn_peer[911] 	lookupTimeSig:mean 	-nan
scalar Network.dyn_peer[911] 	lookupStabilitySig:mean 	-nan
scalar Network.dyn_peer[911] 	lookupHopsSig:mean 	-nan
scalar Network.dyn_peer[912] 	lookupTimeSig:mean 	-nan
scalar Network.dyn_peer[912] 	lookupStabilitySig:mean 	-nan
scalar Network.dyn_peer[912] 	lookupHopsSig:mean 	-nan
scalar Network.dyn_peer[913] 	lookupTimeSig:mean 	-nan
scalar Network.dyn_peer[913] 	lookupStabilitySig:mean 	-nan
scalar Network.dyn_peer[913] 	lookupHopsSig:mean 	-nan
scalar Network.dyn_peer[914] 	lookupTimeSig:mean 	-nan
scalar Network.dyn_peer[914] 	lookupStabilitySig:mean 	-nan
scalar Network.dyn_peer[914] 	lookupHopsSig:mean 	-nan
scalar Network.dyn_peer[915] 	lookupTimeSig:mean 	-nan
scalar Network.dyn_peer[915] 	lookupStabilitySig:mean 	-nan
scalar Network.dyn_peer[915] 	lookupHopsSig:mean 	-nan
scalar Network.dyn_peer[916] 	lookupTimeSig:mean 	-nan
scalar Network.dyn_peer[916] 	lookupStabilitySig:mean 	-nan
scalar Network.dyn_peer[916] 	lookupHopsSig:mean 	-nan
scalar Network.dyn_peer[917] 	lookupTimeSig:mean 	-nan
scalar Network.dyn_peer[917] 	lookupStabilitySig:mean 	-nan
scalar Network.dyn_peer[917] 	lookupHopsSig:mean 	-nan
scalar Network.dyn_peer[918] 	lookupTimeSig:mean 	-nan
scalar Network.dyn_peer[918] 	lookupStabilitySig:mean 	-nan
scalar Network.dyn_peer[918] 	lookupHopsSig:mean 	-nan
scalar Network.dyn_peer[919] 	lookupTimeSig:mean 	-nan
scalar Network.dyn_peer[919] 	lookupStabilitySig:mean 	-nan
scalar Network.dyn_peer[919] 	lookupHopsSig:mean 	-nan
scalar Network.dyn_peer[920] 	lookupTimeSig:mean 	-nan
scalar Network.dyn_peer[920] 	lookupStabilitySig:mean 	-nan
scalar Network.dyn_peer[920] 	lookupHopsSig:mean 	-nan
scalar Network.dyn_peer[921] 	lookupTimeSig:mean 	-nan
scalar Network.dyn_peer[921] 	lookupStabilitySig:mean 	-nan
scalar Network.dyn_peer[921] 	lookupHopsSig:mean 	-nan
scalar Network.dyn_peer[922] 	lookupTimeSig:mean 	-nan
scalar Network.dyn_peer[922] 	lookupStabilitySig:mean 	-nan
scalar Network.dyn_peer[922] 	lookupHopsSig:mean 	-nan
scalar Network.dyn_peer[923] 	lookupTimeSig:mean 	-nan
scalar Network.dyn_peer[923] 	lookupStabilitySig:mean 	-nan
scalar Network.dyn_peer[923] 	lookupHopsSig:mean 	-nan
scalar Network.dyn_peer[924] 	lookupTimeSig:mean 	-nan
scalar Network.dyn_peer[924] 	lookupStabilitySig:mean 	-nan
scalar Network.dyn_peer[924] 	lookupHopsSig:mean 	-nan
scalar Network.dyn_peer[925] 	lookupTimeSig:mean 	-nan
scalar Network.dyn_peer[925] 	lookupStabilitySig:mean 	-nan
scalar Network.dyn_peer[925] 	lookupHopsSig:mean 	-nan
scalar Network.dyn_peer[926] 	lookupTimeSig:mean 	-nan
scalar Network.dyn_peer[926] 	lookupStabilitySig:mean 	-nan
scalar Network.dyn_peer[926] 	lookupHopsSig:mean 	-nan
scalar Network.dyn_peer[927] 	lookupTimeSig:mean 	-nan
scalar Network.dyn_peer[927] 	lookupStabilitySig:mean 	-nan
scalar Network.dyn_peer[927] 	lookupHopsSig:mean 	-nan
scalar Network.dyn_peer[928] 	lookupTimeSig:mean 	-nan
scalar Network.dyn_peer[928] 	lookupStabilitySig:mean 	-nan
scalar Network.dyn_peer[928] 	lookupHopsSig:mean 	-nan
scalar Network.dyn_peer[929] 	lookupTimeSig:mean 	-nan
scalar Network.dyn_peer[929] 	lookupStabilitySig:mean 	-nan
scalar Network.dyn_peer[929] 	lookupHopsSig:mean 	-nan
scalar Network.dyn_peer[930] 	lookupTimeSig:mean 	-nan
scalar Network.dyn_peer[930] 	lookupStabilitySig:mean 	-nan
scalar Network.dyn_peer[930] 	lookupHopsSig:mean 	-nan
scalar Network.dyn_peer[931] 	lookupTimeSig:mean 	-nan
scalar Network.dyn_peer[931] 	lookupStabilitySig:mean 	-nan
scalar Network.dyn_peer[931] 	lookupHopsSig:mean 	-nan
scalar Network.dyn_peer[932] 	lookupTimeSig:mean 	-nan
scalar Network.dyn_peer[932] 	lookupStabilitySig:mean 	-nan
scalar Network.dyn_peer[932] 	lookupHopsSig:mean 	-nan
scalar Network.dyn_peer[933] 	lookupTimeSig:mean 	-nan
scalar Network.dyn_peer[933] 	lookupStabilitySig:mean 	-nan
scalar Network.dyn_peer[933] 	lookupHopsSig:mean 	-nan
scalar Network.dyn_peer[934] 	lookupTimeSig:mean 	-nan
scalar Network.dyn_peer[934] 	lookupStabilitySig:mean 	-nan
scalar Network.dyn_peer[934] 	lookupHopsSig:mean 	-nan
scalar Network.dyn_peer[935] 	lookupTimeSig:mean 	-nan
scalar Network.dyn_peer[935] 	lookupStabilitySig:mean 	-nan
scalar Network.dyn_peer[935] 	lookupHopsSig:mean 	-nan
scalar Network.dyn_peer[936] 	lookupTimeSig:mean 	-nan
scalar Network.dyn_peer[936] 	lookupStabilitySig:mean 	-nan
scalar Network.dyn_peer[936] 	lookupHopsSig:mean 	-nan
scalar Network.dyn_peer[937] 	lookupTimeSig:mean 	-nan
scalar Network.dyn_peer[937] 	lookupStabilitySig:mean 	-nan
scalar Network.dyn_peer[937] 	lookupHopsSig:mean 	-nan
scalar Network.dyn_peer[938] 	lookupTimeSig:mean 	-nan
scalar Network.dyn_peer[938] 	lookupStabilitySig:mean 	-nan
scalar Network.dyn_peer[938] 	lookupHopsSig:mean 	-nan
scalar Network.dyn_peer[939] 	lookupTimeSig:mean 	-nan
scalar Network.dyn_peer[939] 	lookupStabilitySig:mean 	-nan
scalar Network.dyn_peer[939] 	lookupHopsSig:mean 	-nan
scalar Network.dyn_peer[940] 	lookupTimeSig:mean 	-nan
scalar Network.dyn_peer[940] 	lookupStabilitySig:mean 	-nan
scalar Network.dyn_peer[940] 	lookupHopsSig:mean 	-nan
scalar Network.dyn_peer[941] 	lookupTimeSig:mean 	-nan
scalar Network.dyn_peer[941] 	lookupStabilitySig:mean 	-nan
scalar Network.dyn_peer[941] 	lookupHopsSig:mean 	-nan
scalar Network.dyn_peer[942] 	lookupTimeSig:mean 	-nan
scalar Network.dyn_peer[942] 	lookupStabilitySig:mean 	-nan
scalar Network.dyn_peer[942] 	lookupHopsSig:mean 	-nan
scalar Network.dyn_peer[943] 	lookupTimeSig:mean 	-nan
scalar Network.dyn_peer[943] 	lookupStabilitySig:mean 	-nan
scalar Network.dyn_peer[943] 	lookupHopsSig:mean 	-nan
scalar Network.dyn_peer[944] 	lookupTimeSig:mean 	-nan
scalar Network.dyn_peer[944] 	lookupStabilitySig:mean 	-nan
scalar Network.dyn_peer[944] 	lookupHopsSig:mean 	-nan
scalar Network.dyn_peer[945] 	lookupTimeSig:mean 	-nan
scalar Network.dyn_peer[945] 	lookupStabilitySig:mean 	-nan
scalar Network.dyn_peer[945] 	lookupHopsSig:mean 	-nan
scalar Network.dyn_peer[946] 	lookupTimeSig:mean 	-nan
scalar Network.dyn_peer[946] 	lookupStabilitySig:mean 	-nan
scalar Network.dyn_peer[946] 	lookupHopsSig:mean 	-nan
scalar Network.dyn_peer[947] 	lookupTimeSig:mean 	-nan
scalar Network.dyn_peer[947] 	lookupStabilitySig:mean 	-nan
scalar Network.dyn_peer[947] 	lookupHopsSig:mean 	-nan
scalar Network.dyn_peer[948] 	lookupTimeSig:mean 	-nan
scalar Network.dyn_peer[948] 	lookupStabilitySig:mean 	-nan
scalar Network.dyn_peer[948] 	lookupHopsSig:mean 	-nan
scalar Network.dyn_peer[949] 	lookupTimeSig:mean 	-nan
scalar Network.dyn_peer[949] 	lookupStabilitySig:mean 	-nan
scalar Network.dyn_peer[949] 	lookupHopsSig:mean 	-nan
scalar Network.dyn_peer[950] 	lookupTimeSig:mean 	-nan
scalar Network.dyn_peer[950] 	lookupStabilitySig:mean 	-nan
scalar Network.dyn_peer[950] 	lookupHopsSig:mean 	-nan
scalar Network.dyn_peer[951] 	lookupTimeSig:mean 	-nan
scalar Network.dyn_peer[951] 	lookupStabilitySig:mean 	-nan
scalar Network.dyn_peer[951] 	lookupHopsSig:mean 	-nan
scalar Network.dyn_peer[952] 	lookupTimeSig:mean 	-nan
scalar Network.dyn_peer[952] 	lookupStabilitySig:mean 	-nan
scalar Network.dyn_peer[952] 	lookupHopsSig:mean 	-nan
scalar Network.dyn_peer[953] 	lookupTimeSig:mean 	-nan
scalar Network.dyn_peer[953] 	lookupStabilitySig:mean 	-nan
scalar Network.dyn_peer[953] 	lookupHopsSig:mean 	-nan
scalar Network.dyn_peer[954] 	lookupTimeSig:mean 	-nan
scalar Network.dyn_peer[954] 	lookupStabilitySig:mean 	-nan
scalar Network.dyn_peer[954] 	lookupHopsSig:mean 	-nan
scalar Network.dyn_peer[955] 	lookupTimeSig:mean 	-nan
scalar Network.dyn_peer[955] 	lookupStabilitySig:mean 	-nan
scalar Network.dyn_peer[955] 	lookupHopsSig:mean 	-nan
scalar Network.dyn_peer[956] 	lookupTimeSig:mean 	-nan
scalar Network.dyn_peer[956] 	lookupStabilitySig:mean 	-nan
scalar Network.dyn_peer[956] 	lookupHopsSig:mean 	-nan
scalar Network.dyn_peer[957] 	lookupTimeSig:mean 	-nan
scalar Network.dyn_peer[957] 	lookupStabilitySig:mean 	-nan
scalar Network.dyn_peer[957] 	lookupHopsSig:mean 	-nan
scalar Network.dyn_peer[958] 	lookupTimeSig:mean 	-nan
scalar Network.dyn_peer[958] 	lookupStabilitySig:mean 	-nan
scalar Network.dyn_peer[958] 	lookupHopsSig:mean 	-nan
scalar Network.dyn_peer[959] 	lookupTimeSig:mean 	-nan
scalar Network.dyn_peer[959] 	lookupStabilitySig:mean 	-nan
scalar Network.dyn_peer[959] 	lookupHopsSig:mean 	-nan
scalar Network.dyn_peer[960] 	lookupTimeSig:mean 	-nan
scalar Network.dyn_peer[960] 	lookupStabilitySig:mean 	-nan
scalar Network.dyn_peer[960] 	lookupHopsSig:mean 	-nan
scalar Network.dyn_peer[961] 	lookupTimeSig:mean 	-nan
scalar Network.dyn_peer[961] 	lookupStabilitySig:mean 	-nan
scalar Network.dyn_peer[961] 	lookupHopsSig:mean 	-nan
scalar Network.dyn_peer[962] 	lookupTimeSig:mean 	-nan
scalar Network.dyn_peer[962] 	lookupStabilitySig:mean 	-nan
scalar Network.dyn_peer[962] 	lookupHopsSig:mean 	-nan
scalar Network.dyn_peer[963] 	lookupTimeSig:mean 	-nan
scalar Network.dyn_peer[963] 	lookupStabilitySig:mean 	-nan
scalar Network.dyn_peer[963] 	lookupHopsSig:mean 	-nan
scalar Network.dyn_peer[964] 	lookupTimeSig:mean 	-nan
scalar Network.dyn_peer[964] 	lookupStabilitySig:mean 	-nan
scalar Network.dyn_peer[964] 	lookupHopsSig:mean 	-nan
scalar Network.dyn_peer[965] 	lookupTimeSig:mean 	-nan
scalar Network.dyn_peer[965] 	lookupStabilitySig:mean 	-nan
scalar Network.dyn_peer[965] 	lookupHopsSig:mean 	-nan
scalar Network.dyn_peer[966] 	lookupTimeSig:mean 	-nan
scalar Network.dyn_peer[966] 	lookupStabilitySig:mean 	-nan
scalar Network.dyn_peer[966] 	lookupHopsSig:mean 	-nan
scalar Network.dyn_peer[967] 	lookupTimeSig:mean 	-nan
scalar Network.dyn_peer[967] 	lookupStabilitySig:mean 	-nan
scalar Network.dyn_peer[967] 	lookupHopsSig:mean 	-nan
scalar Network.dyn_peer[968] 	lookupTimeSig:mean 	-nan
scalar Network.dyn_peer[968] 	lookupStabilitySig:mean 	-nan
scalar Network.dyn_peer[968] 	lookupHopsSig:mean 	-nan
scalar Network.dyn_peer[969] 	lookupTimeSig:mean 	-nan
scalar Network.dyn_peer[969] 	lookupStabilitySig:mean 	-nan
scalar Network.dyn_peer[969] 	lookupHopsSig:mean 	-nan
scalar Network.dyn_peer[970] 	lookupTimeSig:mean 	-nan
scalar Network.dyn_peer[970] 	lookupStabilitySig:mean 	-nan
scalar Network.dyn_peer[970] 	lookupHopsSig:mean 	-nan
scalar Network.dyn_peer[971] 	lookupTimeSig:mean 	-nan
scalar Network.dyn_peer[971] 	lookupStabilitySig:mean 	-nan
scalar Network.dyn_peer[971] 	lookupHopsSig:mean 	-nan
scalar Network.dyn_peer[972] 	lookupTimeSig:mean 	-nan
scalar Network.dyn_peer[972] 	lookupStabilitySig:mean 	-nan
scalar Network.dyn_peer[972] 	lookupHopsSig:mean 	-nan
scalar Network.dyn_peer[973] 	lookupTimeSig:mean 	-nan
scalar Network.dyn_peer[973] 	lookupStabilitySig:mean 	-nan
scalar Network.dyn_peer[973] 	lookupHopsSig:mean 	-nan
scalar Network.dyn_peer[974] 	lookupTimeSig:mean 	-nan
scalar Network.dyn_peer[974] 	lookupStabilitySig:mean 	-nan
scalar Network.dyn_peer[974] 	lookupHopsSig:mean 	-nan
scalar Network.dyn_peer[975] 	lookupTimeSig:mean 	-nan
scalar Network.dyn_peer[975] 	lookupStabilitySig:mean 	-nan
scalar Network.dyn_peer[975] 	lookupHopsSig:mean 	-nan
scalar Network.dyn_peer[976] 	lookupTimeSig:mean 	-nan
scalar Network.dyn_peer[976] 	lookupStabilitySig:mean 	-nan
scalar Network.dyn_peer[976] 	lookupHopsSig:mean 	-nan
scalar Network.dyn_peer[977] 	lookupTimeSig:mean 	-nan
scalar Network.dyn_peer[977] 	lookupStabilitySig:mean 	-nan
scalar Network.dyn_peer[977] 	lookupHopsSig:mean 	-nan
scalar Network.dyn_peer[978] 	lookupTimeSig:mean 	-nan
scalar Network.dyn_peer[978] 	lookupStabilitySig:mean 	-nan
scalar Network.dyn_peer[978] 	lookupHopsSig:mean 	-nan
scalar Network.dyn_peer[979] 	lookupTimeSig:mean 	-nan
scalar Network.dyn_peer[979] 	lookupStabilitySig:mean 	-nan
scalar Network.dyn_peer[979] 	lookupHopsSig:mean 	-nan
scalar Network.dyn_peer[980] 	lookupTimeSig:mean 	-nan
scalar Network.dyn_peer[980] 	lookupStabilitySig:mean 	-nan
scalar Network.dyn_peer[980] 	lookupHopsSig:mean 	-nan
scalar Network.dyn_peer[981] 	lookupTimeSig:mean 	-nan
scalar Network.dyn_peer[981] 	lookupStabilitySig:mean 	-nan
scalar Network.dyn_peer[981] 	lookupHopsSig:mean 	-nan
scalar Network.dyn_peer[982] 	lookupTimeSig:mean 	-nan
scalar Network.dyn_peer[982] 	lookupStabilitySig:mean 	-nan
scalar Network.dyn_peer[982] 	lookupHopsSig:mean 	-nan
scalar Network.dyn_peer[983] 	lookupTimeSig:mean 	-nan
scalar Network.dyn_peer[983] 	lookupStabilitySig:mean 	-nan
scalar Network.dyn_peer[983] 	lookupHopsSig:mean 	-nan
scalar Network.dyn_peer[984] 	lookupTimeSig:mean 	-nan
scalar Network.dyn_peer[984] 	lookupStabilitySig:mean 	-nan
scalar Network.dyn_peer[984] 	lookupHopsSig:mean 	-nan
scalar Network.dyn_peer[985] 	lookupTimeSig:mean 	-nan
scalar Network.dyn_peer[985] 	lookupStabilitySig:mean 	-nan
scalar Network.dyn_peer[985] 	lookupHopsSig:mean 	-nan
scalar Network.dyn_peer[986] 	lookupTimeSig:mean 	-nan
scalar Network.dyn_peer[986] 	lookupStabilitySig:mean 	-nan
scalar Network.dyn_peer[986] 	lookupHopsSig:mean 	-nan
scalar Network.dyn_peer[987] 	lookupTimeSig:mean 	-nan
scalar Network.dyn_peer[987] 	lookupStabilitySig:mean 	-nan
scalar Network.dyn_peer[987] 	lookupHopsSig:mean 	-nan
scalar Network.dyn_peer[988] 	lookupTimeSig:mean 	-nan
scalar Network.dyn_peer[988] 	lookupStabilitySig:mean 	-nan
scalar Network.dyn_peer[988] 	lookupHopsSig:mean 	-nan
scalar Network.dyn_peer[989] 	lookupTimeSig:mean 	-nan
scalar Network.dyn_peer[989] 	lookupStabilitySig:mean 	-nan
scalar Network.dyn_peer[989] 	lookupHopsSig:mean 	-nan
scalar Network.dyn_peer[990] 	lookupTimeSig:mean 	-nan
scalar Network.dyn_peer[990] 	lookupStabilitySig:mean 	-nan
scalar Network.dyn_peer[990] 	lookupHopsSig:mean 	-nan
scalar Network.dyn_peer[991] 	lookupTimeSig:mean 	-nan
scalar Network.dyn_peer[991] 	lookupStabilitySig:mean 	-nan
scalar Network.dyn_peer[991] 	lookupHopsSig:mean 	-nan
scalar Network.dyn_peer[992] 	lookupTimeSig:mean 	-nan
scalar Network.dyn_peer[992] 	lookupStabilitySig:mean 	-nan
scalar Network.dyn_peer[992] 	lookupHopsSig:mean 	-nan
scalar Network.dyn_peer[993] 	lookupTimeSig:mean 	-nan
scalar Network.dyn_peer[993] 	lookupStabilitySig:mean 	-nan
scalar Network.dyn_peer[993] 	lookupHopsSig:mean 	-nan
scalar Network.dyn_peer[994] 	lookupTimeSig:mean 	-nan
scalar Network.dyn_peer[994] 	lookupStabilitySig:mean 	-nan
scalar Network.dyn_peer[994] 	lookupHopsSig:mean 	-nan
scalar Network.dyn_peer[995] 	lookupTimeSig:mean 	-nan
scalar Network.dyn_peer[995] 	lookupStabilitySig:mean 	-nan
scalar Network.dyn_peer[995] 	lookupHopsSig:mean 	-nan
scalar Network.dyn_peer[996] 	lookupTimeSig:mean 	-nan
scalar Network.dyn_peer[996] 	lookupStabilitySig:mean 	-nan
scalar Network.dyn_peer[996] 	lookupHopsSig:mean 	-nan
scalar Network.dyn_peer[997] 	lookupTimeSig:mean 	-nan
scalar Network.dyn_peer[997] 	lookupStabilitySig:mean 	-nan
scalar Network.dyn_peer[997] 	lookupHopsSig:mean 	-nan
scalar Network.dyn_peer[998] 	lookupTimeSig:mean 	-nan
scalar Network.dyn_peer[998] 	lookupStabilitySig:mean 	-nan
scalar Network.dyn_peer[998] 	lookupHopsSig:mean 	-nan
scalar Network.dyn_peer[999] 	lookupTimeSig:mean 	-nan
scalar Network.dyn_peer[999] 	lookupStabilitySig:mean 	-nan
scalar Network.dyn_peer[999] 	lookupHopsSig:mean 	-nan
scalar Network.churner 	inGoingSizeSig:mean 	149.00332225914
