version 2
run Stability2-285-20130526-00:53:55-26640
attr configname Stability2
attr datetime 20130526-00:53:55
attr experiment Stability2
attr inifile omnetpp.ini
attr iterationvars $0=500
attr iterationvars2 "$0=500, $repetition=15"
attr measurement $0=500
attr network Network
attr processid 26640
attr repetition 15
attr replication #15
attr resultdir results
attr runnumber 285
attr seedset 285

scalar Network.dyn_peer[0] 	lookupTimeSig:mean 	1.18
scalar Network.dyn_peer[0] 	lookupStabilitySig:mean 	0.67541479505599
scalar Network.dyn_peer[0] 	lookupHopsSig:mean 	11
scalar Network.dyn_peer[1] 	lookupTimeSig:mean 	1.2333333333333
scalar Network.dyn_peer[1] 	lookupStabilitySig:mean 	0.43651237587134
scalar Network.dyn_peer[1] 	lookupHopsSig:mean 	11.666666666667
scalar Network.dyn_peer[2] 	lookupTimeSig:mean 	0.925
scalar Network.dyn_peer[2] 	lookupStabilitySig:mean 	0.30811689607799
scalar Network.dyn_peer[2] 	lookupHopsSig:mean 	8.5
scalar Network.dyn_peer[3] 	lookupTimeSig:mean 	1.55
scalar Network.dyn_peer[3] 	lookupStabilitySig:mean 	0.60638403333724
scalar Network.dyn_peer[3] 	lookupHopsSig:mean 	14.666666666667
scalar Network.dyn_peer[4] 	lookupTimeSig:mean 	0.875
scalar Network.dyn_peer[4] 	lookupStabilitySig:mean 	0.30906861275434
scalar Network.dyn_peer[4] 	lookupHopsSig:mean 	8
scalar Network.dyn_peer[5] 	lookupTimeSig:mean 	2.05
scalar Network.dyn_peer[5] 	lookupStabilitySig:mean 	0.77548182103783
scalar Network.dyn_peer[5] 	lookupHopsSig:mean 	19.75
scalar Network.dyn_peer[6] 	lookupTimeSig:mean 	1.9666666666667
scalar Network.dyn_peer[6] 	lookupStabilitySig:mean 	0.84788192808628
scalar Network.dyn_peer[6] 	lookupHopsSig:mean 	19
scalar Network.dyn_peer[7] 	lookupTimeSig:mean 	1.68
scalar Network.dyn_peer[7] 	lookupStabilitySig:mean 	0.62067384272814
scalar Network.dyn_peer[7] 	lookupHopsSig:mean 	16
scalar Network.dyn_peer[8] 	lookupTimeSig:mean 	1.4833333333333
scalar Network.dyn_peer[8] 	lookupStabilitySig:mean 	0.73538739420474
scalar Network.dyn_peer[8] 	lookupHopsSig:mean 	14
scalar Network.dyn_peer[9] 	lookupTimeSig:mean 	1.0375
scalar Network.dyn_peer[9] 	lookupStabilitySig:mean 	0.72164180854452
scalar Network.dyn_peer[9] 	lookupHopsSig:mean 	9.5
scalar Network.dyn_peer[10] 	lookupTimeSig:mean 	1.325
scalar Network.dyn_peer[10] 	lookupStabilitySig:mean 	0.64483737200499
scalar Network.dyn_peer[10] 	lookupHopsSig:mean 	12.5
scalar Network.dyn_peer[11] 	lookupTimeSig:mean 	1.64
scalar Network.dyn_peer[11] 	lookupStabilitySig:mean 	0.44930571727455
scalar Network.dyn_peer[11] 	lookupHopsSig:mean 	15.6
scalar Network.dyn_peer[12] 	lookupTimeSig:mean 	2.24
scalar Network.dyn_peer[12] 	lookupStabilitySig:mean 	0.39921821784228
scalar Network.dyn_peer[12] 	lookupHopsSig:mean 	21.6
scalar Network.dyn_peer[13] 	lookupTimeSig:mean 	1.1571428571429
scalar Network.dyn_peer[13] 	lookupStabilitySig:mean 	0.84015761488783
scalar Network.dyn_peer[13] 	lookupHopsSig:mean 	10.642857142857
scalar Network.dyn_peer[14] 	lookupTimeSig:mean 	1.25
scalar Network.dyn_peer[14] 	lookupStabilitySig:mean 	0.2913300243672
scalar Network.dyn_peer[14] 	lookupHopsSig:mean 	11.75
scalar Network.dyn_peer[15] 	lookupTimeSig:mean 	1.5666666666667
scalar Network.dyn_peer[15] 	lookupStabilitySig:mean 	0.12654323379199
scalar Network.dyn_peer[15] 	lookupHopsSig:mean 	15
scalar Network.dyn_peer[16] 	lookupTimeSig:mean 	0.575
scalar Network.dyn_peer[16] 	lookupStabilitySig:mean 	0.3041666476056
scalar Network.dyn_peer[16] 	lookupHopsSig:mean 	5
scalar Network.dyn_peer[17] 	lookupTimeSig:mean 	0.925
scalar Network.dyn_peer[17] 	lookupStabilitySig:mean 	0.59320913255215
scalar Network.dyn_peer[17] 	lookupHopsSig:mean 	8.5
scalar Network.dyn_peer[18] 	lookupTimeSig:mean 	2.1333333333333
scalar Network.dyn_peer[18] 	lookupStabilitySig:mean 	0.22057661910852
scalar Network.dyn_peer[18] 	lookupHopsSig:mean 	20.666666666667
scalar Network.dyn_peer[19] 	lookupTimeSig:mean 	0.7
scalar Network.dyn_peer[19] 	lookupStabilitySig:mean 	0.67484898678958
scalar Network.dyn_peer[19] 	lookupHopsSig:mean 	6.1111111111111
scalar Network.dyn_peer[20] 	lookupTimeSig:mean 	2.5666666666667
scalar Network.dyn_peer[20] 	lookupStabilitySig:mean 	0.48484322925409
scalar Network.dyn_peer[20] 	lookupHopsSig:mean 	25
scalar Network.dyn_peer[21] 	lookupTimeSig:mean 	1.4
scalar Network.dyn_peer[21] 	lookupStabilitySig:mean 	0.25227148706714
scalar Network.dyn_peer[21] 	lookupHopsSig:mean 	13.333333333333
scalar Network.dyn_peer[22] 	lookupTimeSig:mean 	0.9375
scalar Network.dyn_peer[22] 	lookupStabilitySig:mean 	0.81616793927969
scalar Network.dyn_peer[22] 	lookupHopsSig:mean 	8.5
scalar Network.dyn_peer[23] 	lookupTimeSig:mean 	1.375
scalar Network.dyn_peer[23] 	lookupStabilitySig:mean 	0.61893939226866
scalar Network.dyn_peer[23] 	lookupHopsSig:mean 	13
scalar Network.dyn_peer[24] 	lookupTimeSig:mean 	1.325
scalar Network.dyn_peer[24] 	lookupStabilitySig:mean 	0.67861226550303
scalar Network.dyn_peer[24] 	lookupHopsSig:mean 	12.5
scalar Network.dyn_peer[25] 	lookupTimeSig:mean 	1.32
scalar Network.dyn_peer[25] 	lookupStabilitySig:mean 	0.55398415178061
scalar Network.dyn_peer[25] 	lookupHopsSig:mean 	12.4
scalar Network.dyn_peer[26] 	lookupTimeSig:mean 	1.6333333333333
scalar Network.dyn_peer[26] 	lookupStabilitySig:mean 	0.63306878010432
scalar Network.dyn_peer[26] 	lookupHopsSig:mean 	15.666666666667
scalar Network.dyn_peer[27] 	lookupTimeSig:mean 	1.325
scalar Network.dyn_peer[27] 	lookupStabilitySig:mean 	0.32666069362313
scalar Network.dyn_peer[27] 	lookupHopsSig:mean 	12.5
scalar Network.dyn_peer[28] 	lookupTimeSig:mean 	1.3
scalar Network.dyn_peer[28] 	lookupStabilitySig:mean 	0.29298695735633
scalar Network.dyn_peer[28] 	lookupHopsSig:mean 	12.25
scalar Network.dyn_peer[29] 	lookupTimeSig:mean 	1.8272727272727
scalar Network.dyn_peer[29] 	lookupStabilitySig:mean 	0.92401095395061
scalar Network.dyn_peer[29] 	lookupHopsSig:mean 	17.363636363636
scalar Network.dyn_peer[30] 	lookupTimeSig:mean 	1.0428571428571
scalar Network.dyn_peer[30] 	lookupStabilitySig:mean 	0.58925687894225
scalar Network.dyn_peer[30] 	lookupHopsSig:mean 	9.5714285714286
scalar Network.dyn_peer[31] 	lookupTimeSig:mean 	1.0125
scalar Network.dyn_peer[31] 	lookupStabilitySig:mean 	0.62417750793975
scalar Network.dyn_peer[31] 	lookupHopsSig:mean 	9.25
scalar Network.dyn_peer[32] 	lookupTimeSig:mean 	1.0125
scalar Network.dyn_peer[32] 	lookupStabilitySig:mean 	0.86247230740264
scalar Network.dyn_peer[32] 	lookupHopsSig:mean 	9.25
scalar Network.dyn_peer[33] 	lookupTimeSig:mean 	1.62
scalar Network.dyn_peer[33] 	lookupStabilitySig:mean 	0.57659644633532
scalar Network.dyn_peer[33] 	lookupHopsSig:mean 	15.4
scalar Network.dyn_peer[34] 	lookupTimeSig:mean 	1.2
scalar Network.dyn_peer[34] 	lookupStabilitySig:mean 	-0.3506493717432
scalar Network.dyn_peer[34] 	lookupHopsSig:mean 	11.5
scalar Network.dyn_peer[35] 	lookupTimeSig:mean 	1.475
scalar Network.dyn_peer[35] 	lookupStabilitySig:mean 	0.64870537281968
scalar Network.dyn_peer[35] 	lookupHopsSig:mean 	13.875
scalar Network.dyn_peer[36] 	lookupTimeSig:mean 	1.4333333333333
scalar Network.dyn_peer[36] 	lookupStabilitySig:mean 	0.7744222217136
scalar Network.dyn_peer[36] 	lookupHopsSig:mean 	13.444444444444
scalar Network.dyn_peer[37] 	lookupTimeSig:mean 	1.375
scalar Network.dyn_peer[37] 	lookupStabilitySig:mean 	0.33301479183137
scalar Network.dyn_peer[37] 	lookupHopsSig:mean 	13
scalar Network.dyn_peer[38] 	lookupTimeSig:mean 	1.1666666666667
scalar Network.dyn_peer[38] 	lookupStabilitySig:mean 	0.60856198752299
scalar Network.dyn_peer[38] 	lookupHopsSig:mean 	10.833333333333
scalar Network.dyn_peer[39] 	lookupTimeSig:mean 	1.375
scalar Network.dyn_peer[39] 	lookupStabilitySig:mean 	0.70101055735722
scalar Network.dyn_peer[39] 	lookupHopsSig:mean 	12.875
scalar Network.dyn_peer[40] 	lookupTimeSig:mean 	2.5
scalar Network.dyn_peer[40] 	lookupStabilitySig:mean 	0.75499776937068
scalar Network.dyn_peer[40] 	lookupHopsSig:mean 	24.25
scalar Network.dyn_peer[41] 	lookupTimeSig:mean 	1.9833333333333
scalar Network.dyn_peer[41] 	lookupStabilitySig:mean 	0.86465300293639
scalar Network.dyn_peer[41] 	lookupHopsSig:mean 	19
scalar Network.dyn_peer[42] 	lookupTimeSig:mean 	1.71
scalar Network.dyn_peer[42] 	lookupStabilitySig:mean 	0.94412807375193
scalar Network.dyn_peer[42] 	lookupHopsSig:mean 	16.2
scalar Network.dyn_peer[43] 	lookupTimeSig:mean 	1
scalar Network.dyn_peer[43] 	lookupStabilitySig:mean 	0.099999994039536
scalar Network.dyn_peer[43] 	lookupHopsSig:mean 	9.3333333333333
scalar Network.dyn_peer[44] 	lookupTimeSig:mean 	1.3
scalar Network.dyn_peer[44] 	lookupStabilitySig:mean 	0.39360729853312
scalar Network.dyn_peer[44] 	lookupHopsSig:mean 	12.333333333333
scalar Network.dyn_peer[45] 	lookupTimeSig:mean 	0.68888888888889
scalar Network.dyn_peer[45] 	lookupStabilitySig:mean 	0.64286479260772
scalar Network.dyn_peer[45] 	lookupHopsSig:mean 	6
scalar Network.dyn_peer[46] 	lookupTimeSig:mean 	1.1
scalar Network.dyn_peer[46] 	lookupStabilitySig:mean 	0.76543777177317
scalar Network.dyn_peer[46] 	lookupHopsSig:mean 	10.111111111111
scalar Network.dyn_peer[47] 	lookupTimeSig:mean 	0.7
scalar Network.dyn_peer[47] 	lookupStabilitySig:mean 	0.28333331644535
scalar Network.dyn_peer[47] 	lookupHopsSig:mean 	6.3333333333333
scalar Network.dyn_peer[48] 	lookupTimeSig:mean 	1.925
scalar Network.dyn_peer[48] 	lookupStabilitySig:mean 	0.56975296325982
scalar Network.dyn_peer[48] 	lookupHopsSig:mean 	18.5
scalar Network.dyn_peer[49] 	lookupTimeSig:mean 	1.525
scalar Network.dyn_peer[49] 	lookupStabilitySig:mean 	0.68320041522384
scalar Network.dyn_peer[49] 	lookupHopsSig:mean 	14.5
scalar Network.dyn_peer[50] 	lookupTimeSig:mean 	0.76666666666667
scalar Network.dyn_peer[50] 	lookupStabilitySig:mean 	0.38730156173309
scalar Network.dyn_peer[50] 	lookupHopsSig:mean 	7
scalar Network.dyn_peer[51] 	lookupTimeSig:mean 	1.0111111111111
scalar Network.dyn_peer[51] 	lookupStabilitySig:mean 	0.71140074978272
scalar Network.dyn_peer[51] 	lookupHopsSig:mean 	9.2222222222222
scalar Network.dyn_peer[52] 	lookupTimeSig:mean 	2.15
scalar Network.dyn_peer[52] 	lookupStabilitySig:mean 	0.82195728737861
scalar Network.dyn_peer[52] 	lookupHopsSig:mean 	20.75
scalar Network.dyn_peer[53] 	lookupTimeSig:mean 	1.62
scalar Network.dyn_peer[53] 	lookupStabilitySig:mean 	0.40503202602267
scalar Network.dyn_peer[53] 	lookupHopsSig:mean 	15.4
scalar Network.dyn_peer[54] 	lookupTimeSig:mean 	1.74
scalar Network.dyn_peer[54] 	lookupStabilitySig:mean 	0.39351991266012
scalar Network.dyn_peer[54] 	lookupHopsSig:mean 	16.6
scalar Network.dyn_peer[55] 	lookupTimeSig:mean 	2.4
scalar Network.dyn_peer[55] 	lookupStabilitySig:mean 	0.58349866699427
scalar Network.dyn_peer[55] 	lookupHopsSig:mean 	23.25
scalar Network.dyn_peer[56] 	lookupTimeSig:mean 	2.075
scalar Network.dyn_peer[56] 	lookupStabilitySig:mean 	0.33278712071478
scalar Network.dyn_peer[56] 	lookupHopsSig:mean 	20
scalar Network.dyn_peer[57] 	lookupTimeSig:mean 	1.4666666666667
scalar Network.dyn_peer[57] 	lookupStabilitySig:mean 	0.034785568714142
scalar Network.dyn_peer[57] 	lookupHopsSig:mean 	14
scalar Network.dyn_peer[58] 	lookupTimeSig:mean 	0.9
scalar Network.dyn_peer[58] 	lookupStabilitySig:mean 	0.59609249606729
scalar Network.dyn_peer[58] 	lookupHopsSig:mean 	8.25
scalar Network.dyn_peer[59] 	lookupTimeSig:mean 	2.2666666666667
scalar Network.dyn_peer[59] 	lookupStabilitySig:mean 	0.81749488910039
scalar Network.dyn_peer[59] 	lookupHopsSig:mean 	22
scalar Network.dyn_peer[60] 	lookupTimeSig:mean 	1.5
scalar Network.dyn_peer[60] 	lookupStabilitySig:mean 	0.65283581763506
scalar Network.dyn_peer[60] 	lookupHopsSig:mean 	14.2
scalar Network.dyn_peer[61] 	lookupTimeSig:mean 	1.4
scalar Network.dyn_peer[61] 	lookupStabilitySig:mean 	0.88999741747975
scalar Network.dyn_peer[61] 	lookupHopsSig:mean 	13.1
scalar Network.dyn_peer[62] 	lookupTimeSig:mean 	2.03
scalar Network.dyn_peer[62] 	lookupStabilitySig:mean 	0.92988961385563
scalar Network.dyn_peer[62] 	lookupHopsSig:mean 	19.4
scalar Network.dyn_peer[63] 	lookupTimeSig:mean 	2.65
scalar Network.dyn_peer[63] 	lookupStabilitySig:mean 	0.8414805456996
scalar Network.dyn_peer[63] 	lookupHopsSig:mean 	25.75
scalar Network.dyn_peer[64] 	lookupTimeSig:mean 	1.4
scalar Network.dyn_peer[64] 	lookupStabilitySig:mean 	0.55368927733174
scalar Network.dyn_peer[64] 	lookupHopsSig:mean 	13.142857142857
scalar Network.dyn_peer[65] 	lookupTimeSig:mean 	1.9
scalar Network.dyn_peer[65] 	lookupStabilitySig:mean 	0.16964823752642
scalar Network.dyn_peer[65] 	lookupHopsSig:mean 	18.333333333333
scalar Network.dyn_peer[66] 	lookupTimeSig:mean 	1.9
scalar Network.dyn_peer[66] 	lookupStabilitySig:mean 	0.86238647403661
scalar Network.dyn_peer[66] 	lookupHopsSig:mean 	18.125
scalar Network.dyn_peer[67] 	lookupTimeSig:mean 	1.95
scalar Network.dyn_peer[67] 	lookupStabilitySig:mean 	0.52185708843172
scalar Network.dyn_peer[67] 	lookupHopsSig:mean 	18.75
scalar Network.dyn_peer[68] 	lookupTimeSig:mean 	1.28
scalar Network.dyn_peer[68] 	lookupStabilitySig:mean 	0.86397041995078
scalar Network.dyn_peer[68] 	lookupHopsSig:mean 	11.9
scalar Network.dyn_peer[69] 	lookupTimeSig:mean 	1.45
scalar Network.dyn_peer[69] 	lookupStabilitySig:mean 	0.71035870226721
scalar Network.dyn_peer[69] 	lookupHopsSig:mean 	13.666666666667
scalar Network.dyn_peer[70] 	lookupTimeSig:mean 	1.6
scalar Network.dyn_peer[70] 	lookupStabilitySig:mean 	0.80474870031079
scalar Network.dyn_peer[70] 	lookupHopsSig:mean 	15.333333333333
scalar Network.dyn_peer[71] 	lookupTimeSig:mean 	1
scalar Network.dyn_peer[71] 	lookupStabilitySig:mean 	0.12857139110565
scalar Network.dyn_peer[71] 	lookupHopsSig:mean 	9.5
scalar Network.dyn_peer[72] 	lookupTimeSig:mean 	1.4428571428571
scalar Network.dyn_peer[72] 	lookupStabilitySig:mean 	0.70621746099953
scalar Network.dyn_peer[72] 	lookupHopsSig:mean 	13.571428571429
scalar Network.dyn_peer[73] 	lookupTimeSig:mean 	0.94285714285714
scalar Network.dyn_peer[73] 	lookupStabilitySig:mean 	0.7284128668585
scalar Network.dyn_peer[73] 	lookupHopsSig:mean 	8.5714285714286
scalar Network.dyn_peer[74] 	lookupTimeSig:mean 	0.85
scalar Network.dyn_peer[74] 	lookupStabilitySig:mean 	0.49008310151597
scalar Network.dyn_peer[74] 	lookupHopsSig:mean 	7.6666666666667
scalar Network.dyn_peer[75] 	lookupTimeSig:mean 	1.5666666666667
scalar Network.dyn_peer[75] 	lookupStabilitySig:mean 	0.63064328456918
scalar Network.dyn_peer[75] 	lookupHopsSig:mean 	15
scalar Network.dyn_peer[76] 	lookupTimeSig:mean 	1.5142857142857
scalar Network.dyn_peer[76] 	lookupStabilitySig:mean 	0.90238961700483
scalar Network.dyn_peer[76] 	lookupHopsSig:mean 	14.285714285714
scalar Network.dyn_peer[77] 	lookupTimeSig:mean 	1.38
scalar Network.dyn_peer[77] 	lookupStabilitySig:mean 	0.88030527606606
scalar Network.dyn_peer[77] 	lookupHopsSig:mean 	13
scalar Network.dyn_peer[78] 	lookupTimeSig:mean 	0.7
scalar Network.dyn_peer[78] 	lookupStabilitySig:mean 	0.57229263335466
scalar Network.dyn_peer[78] 	lookupHopsSig:mean 	6.25
scalar Network.dyn_peer[79] 	lookupTimeSig:mean 	1.06
scalar Network.dyn_peer[79] 	lookupStabilitySig:mean 	0.74886170700192
scalar Network.dyn_peer[79] 	lookupHopsSig:mean 	9.8
scalar Network.dyn_peer[80] 	lookupTimeSig:mean 	1.25
scalar Network.dyn_peer[80] 	lookupStabilitySig:mean 	0.87592828945102
scalar Network.dyn_peer[80] 	lookupHopsSig:mean 	11.583333333333
scalar Network.dyn_peer[81] 	lookupTimeSig:mean 	1.075
scalar Network.dyn_peer[81] 	lookupStabilitySig:mean 	0.76303644656825
scalar Network.dyn_peer[81] 	lookupHopsSig:mean 	9.8333333333333
scalar Network.dyn_peer[82] 	lookupTimeSig:mean 	0.92222222222222
scalar Network.dyn_peer[82] 	lookupStabilitySig:mean 	0.75538588894738
scalar Network.dyn_peer[82] 	lookupHopsSig:mean 	8.3333333333333
scalar Network.dyn_peer[83] 	lookupTimeSig:mean 	0.63333333333333
scalar Network.dyn_peer[83] 	lookupStabilitySig:mean 	0.3722222050031
scalar Network.dyn_peer[83] 	lookupHopsSig:mean 	5.6666666666667
scalar Network.dyn_peer[84] 	lookupTimeSig:mean 	1.525
scalar Network.dyn_peer[84] 	lookupStabilitySig:mean 	0.33944510109723
scalar Network.dyn_peer[84] 	lookupHopsSig:mean 	14.5
scalar Network.dyn_peer[85] 	lookupTimeSig:mean 	2.3285714285714
scalar Network.dyn_peer[85] 	lookupStabilitySig:mean 	0.88768868973213
scalar Network.dyn_peer[85] 	lookupHopsSig:mean 	22.428571428571
scalar Network.dyn_peer[86] 	lookupTimeSig:mean 	2.5
scalar Network.dyn_peer[86] 	lookupStabilitySig:mean 	0.75699168816209
scalar Network.dyn_peer[86] 	lookupHopsSig:mean 	24.5
scalar Network.dyn_peer[87] 	lookupTimeSig:mean 	0.85
scalar Network.dyn_peer[87] 	lookupStabilitySig:mean 	0.39499998837709
scalar Network.dyn_peer[87] 	lookupHopsSig:mean 	7.75
scalar Network.dyn_peer[88] 	lookupTimeSig:mean 	1.7
scalar Network.dyn_peer[88] 	lookupStabilitySig:mean 	0.15925925473372
scalar Network.dyn_peer[88] 	lookupHopsSig:mean 	16.333333333333
scalar Network.dyn_peer[89] 	lookupTimeSig:mean 	1.175
scalar Network.dyn_peer[89] 	lookupStabilitySig:mean 	0.51653604581952
scalar Network.dyn_peer[89] 	lookupHopsSig:mean 	11
scalar Network.dyn_peer[90] 	lookupTimeSig:mean 	0.43333333333333
scalar Network.dyn_peer[90] 	lookupStabilitySig:mean 	0.26666664083799
scalar Network.dyn_peer[90] 	lookupHopsSig:mean 	3.6666666666667
scalar Network.dyn_peer[91] 	lookupTimeSig:mean 	1.0083333333333
scalar Network.dyn_peer[91] 	lookupStabilitySig:mean 	0.79800946366352
scalar Network.dyn_peer[91] 	lookupHopsSig:mean 	9.1666666666667
scalar Network.dyn_peer[92] 	lookupTimeSig:mean 	1.58
scalar Network.dyn_peer[92] 	lookupStabilitySig:mean 	0.53755502924323
scalar Network.dyn_peer[92] 	lookupHopsSig:mean 	15
scalar Network.dyn_peer[93] 	lookupTimeSig:mean 	1.9285714285714
scalar Network.dyn_peer[93] 	lookupStabilitySig:mean 	0.86643285064825
scalar Network.dyn_peer[93] 	lookupHopsSig:mean 	18.428571428571
scalar Network.dyn_peer[94] 	lookupTimeSig:mean 	1.68
scalar Network.dyn_peer[94] 	lookupStabilitySig:mean 	0.67128630131483
scalar Network.dyn_peer[94] 	lookupHopsSig:mean 	16
scalar Network.dyn_peer[95] 	lookupTimeSig:mean 	0.5
scalar Network.dyn_peer[95] 	lookupStabilitySig:mean 	0.35833334736526
scalar Network.dyn_peer[95] 	lookupHopsSig:mean 	4.25
scalar Network.dyn_peer[96] 	lookupTimeSig:mean 	1.475
scalar Network.dyn_peer[96] 	lookupStabilitySig:mean 	0.91047916794196
scalar Network.dyn_peer[96] 	lookupHopsSig:mean 	13.875
scalar Network.dyn_peer[97] 	lookupTimeSig:mean 	1.55
scalar Network.dyn_peer[97] 	lookupStabilitySig:mean 	0.83210548075537
scalar Network.dyn_peer[97] 	lookupHopsSig:mean 	14.666666666667
scalar Network.dyn_peer[98] 	lookupTimeSig:mean 	1.6923076923077
scalar Network.dyn_peer[98] 	lookupStabilitySig:mean 	0.93988103548495
scalar Network.dyn_peer[98] 	lookupHopsSig:mean 	16
scalar Network.dyn_peer[99] 	lookupTimeSig:mean 	0.68333333333333
scalar Network.dyn_peer[99] 	lookupStabilitySig:mean 	0.62224443194767
scalar Network.dyn_peer[99] 	lookupHopsSig:mean 	6
scalar Network.dyn_peer[100] 	lookupTimeSig:mean 	1.6
scalar Network.dyn_peer[100] 	lookupStabilitySig:mean 	0.47390602777402
scalar Network.dyn_peer[100] 	lookupHopsSig:mean 	15.333333333333
scalar Network.dyn_peer[101] 	lookupTimeSig:mean 	2.5333333333333
scalar Network.dyn_peer[101] 	lookupStabilitySig:mean 	0.42403415838877
scalar Network.dyn_peer[101] 	lookupHopsSig:mean 	24.666666666667
scalar Network.dyn_peer[102] 	lookupTimeSig:mean 	1.4142857142857
scalar Network.dyn_peer[102] 	lookupStabilitySig:mean 	0.61803592488702
scalar Network.dyn_peer[102] 	lookupHopsSig:mean 	13.285714285714
scalar Network.dyn_peer[103] 	lookupTimeSig:mean 	1.25
scalar Network.dyn_peer[103] 	lookupStabilitySig:mean 	0.23999831080437
scalar Network.dyn_peer[103] 	lookupHopsSig:mean 	11.75
scalar Network.dyn_peer[104] 	lookupTimeSig:mean 	2.6333333333333
scalar Network.dyn_peer[104] 	lookupStabilitySig:mean 	0.87465134573479
scalar Network.dyn_peer[104] 	lookupHopsSig:mean 	25.666666666667
scalar Network.dyn_peer[105] 	lookupTimeSig:mean 	0.925
scalar Network.dyn_peer[105] 	lookupStabilitySig:mean 	0.30433374550194
scalar Network.dyn_peer[105] 	lookupHopsSig:mean 	8.5
scalar Network.dyn_peer[106] 	lookupTimeSig:mean 	1.4166666666667
scalar Network.dyn_peer[106] 	lookupStabilitySig:mean 	0.70115612012645
scalar Network.dyn_peer[106] 	lookupHopsSig:mean 	13.333333333333
scalar Network.dyn_peer[107] 	lookupTimeSig:mean 	0.96666666666667
scalar Network.dyn_peer[107] 	lookupStabilitySig:mean 	0.48417872811357
scalar Network.dyn_peer[107] 	lookupHopsSig:mean 	8.8333333333333
scalar Network.dyn_peer[108] 	lookupTimeSig:mean 	1.8666666666667
scalar Network.dyn_peer[108] 	lookupStabilitySig:mean 	0.62337942669789
scalar Network.dyn_peer[108] 	lookupHopsSig:mean 	18
scalar Network.dyn_peer[109] 	lookupTimeSig:mean 	1.14
scalar Network.dyn_peer[109] 	lookupStabilitySig:mean 	0.9410112451762
scalar Network.dyn_peer[109] 	lookupHopsSig:mean 	10.5
scalar Network.dyn_peer[110] 	lookupTimeSig:mean 	1.82
scalar Network.dyn_peer[110] 	lookupStabilitySig:mean 	0.41581983566284
scalar Network.dyn_peer[110] 	lookupHopsSig:mean 	17.4
scalar Network.dyn_peer[111] 	lookupTimeSig:mean 	1.25
scalar Network.dyn_peer[111] 	lookupStabilitySig:mean 	0.64947780780494
scalar Network.dyn_peer[111] 	lookupHopsSig:mean 	11.75
scalar Network.dyn_peer[112] 	lookupTimeSig:mean 	1.7
scalar Network.dyn_peer[112] 	lookupStabilitySig:mean 	0.66858027549461
scalar Network.dyn_peer[112] 	lookupHopsSig:mean 	16.25
scalar Network.dyn_peer[113] 	lookupTimeSig:mean 	2.3666666666667
scalar Network.dyn_peer[113] 	lookupStabilitySig:mean 	0.35363602514068
scalar Network.dyn_peer[113] 	lookupHopsSig:mean 	23
scalar Network.dyn_peer[114] 	lookupTimeSig:mean 	1.3666666666667
scalar Network.dyn_peer[114] 	lookupStabilitySig:mean 	0.65882351994514
scalar Network.dyn_peer[114] 	lookupHopsSig:mean 	13
scalar Network.dyn_peer[115] 	lookupTimeSig:mean 	1.4166666666667
scalar Network.dyn_peer[115] 	lookupStabilitySig:mean 	0.75881265662611
scalar Network.dyn_peer[115] 	lookupHopsSig:mean 	13.333333333333
scalar Network.dyn_peer[116] 	lookupTimeSig:mean 	1.9
scalar Network.dyn_peer[116] 	lookupStabilitySig:mean 	0.56149585545063
scalar Network.dyn_peer[116] 	lookupHopsSig:mean 	18.333333333333
scalar Network.dyn_peer[117] 	lookupTimeSig:mean 	1.8666666666667
scalar Network.dyn_peer[117] 	lookupStabilitySig:mean 	0.71675084158778
scalar Network.dyn_peer[117] 	lookupHopsSig:mean 	18
scalar Network.dyn_peer[118] 	lookupTimeSig:mean 	1.125
scalar Network.dyn_peer[118] 	lookupStabilitySig:mean 	0.39007647940889
scalar Network.dyn_peer[118] 	lookupHopsSig:mean 	10.5
scalar Network.dyn_peer[119] 	lookupTimeSig:mean 	1.6333333333333
scalar Network.dyn_peer[119] 	lookupStabilitySig:mean 	0.77907590443889
scalar Network.dyn_peer[119] 	lookupHopsSig:mean 	15.5
scalar Network.dyn_peer[120] 	lookupTimeSig:mean 	0.93333333333333
scalar Network.dyn_peer[120] 	lookupStabilitySig:mean 	0.35238092641036
scalar Network.dyn_peer[120] 	lookupHopsSig:mean 	8.6666666666667
scalar Network.dyn_peer[121] 	lookupTimeSig:mean 	1.35
scalar Network.dyn_peer[121] 	lookupStabilitySig:mean 	0.31666666269302
scalar Network.dyn_peer[121] 	lookupHopsSig:mean 	13
scalar Network.dyn_peer[122] 	lookupTimeSig:mean 	1.45
scalar Network.dyn_peer[122] 	lookupStabilitySig:mean 	0.63338058069348
scalar Network.dyn_peer[122] 	lookupHopsSig:mean 	13.75
scalar Network.dyn_peer[123] 	lookupTimeSig:mean 	1.44
scalar Network.dyn_peer[123] 	lookupStabilitySig:mean 	0.9255274749361
scalar Network.dyn_peer[123] 	lookupHopsSig:mean 	13.5
scalar Network.dyn_peer[124] 	lookupTimeSig:mean 	1.6333333333333
scalar Network.dyn_peer[124] 	lookupStabilitySig:mean 	0.93622826210534
scalar Network.dyn_peer[124] 	lookupHopsSig:mean 	15.416666666667
scalar Network.dyn_peer[125] 	lookupTimeSig:mean 	2.3333333333333
scalar Network.dyn_peer[125] 	lookupStabilitySig:mean 	0.73181901779026
scalar Network.dyn_peer[125] 	lookupHopsSig:mean 	22.666666666667
scalar Network.dyn_peer[126] 	lookupTimeSig:mean 	1.08
scalar Network.dyn_peer[126] 	lookupStabilitySig:mean 	0.42457263916731
scalar Network.dyn_peer[126] 	lookupHopsSig:mean 	10
scalar Network.dyn_peer[127] 	lookupTimeSig:mean 	1.33
scalar Network.dyn_peer[127] 	lookupStabilitySig:mean 	0.82840953134
scalar Network.dyn_peer[127] 	lookupHopsSig:mean 	12.4
scalar Network.dyn_peer[128] 	lookupTimeSig:mean 	1.9142857142857
scalar Network.dyn_peer[128] 	lookupStabilitySig:mean 	0.92529939860106
scalar Network.dyn_peer[128] 	lookupHopsSig:mean 	18.285714285714
scalar Network.dyn_peer[129] 	lookupTimeSig:mean 	1.5666666666667
scalar Network.dyn_peer[129] 	lookupStabilitySig:mean 	0.087086342275143
scalar Network.dyn_peer[129] 	lookupHopsSig:mean 	15
scalar Network.dyn_peer[130] 	lookupTimeSig:mean 	1.37
scalar Network.dyn_peer[130] 	lookupStabilitySig:mean 	0.89703654870391
scalar Network.dyn_peer[130] 	lookupHopsSig:mean 	12.8
scalar Network.dyn_peer[131] 	lookupTimeSig:mean 	0.625
scalar Network.dyn_peer[131] 	lookupStabilitySig:mean 	0.27842809166759
scalar Network.dyn_peer[131] 	lookupHopsSig:mean 	5.5
scalar Network.dyn_peer[132] 	lookupTimeSig:mean 	2.65
scalar Network.dyn_peer[132] 	lookupStabilitySig:mean 	-0.32903230190277
scalar Network.dyn_peer[132] 	lookupHopsSig:mean 	26
scalar Network.dyn_peer[133] 	lookupTimeSig:mean 	0.775
scalar Network.dyn_peer[133] 	lookupStabilitySig:mean 	0.19381718151271
scalar Network.dyn_peer[133] 	lookupHopsSig:mean 	7
scalar Network.dyn_peer[134] 	lookupTimeSig:mean 	1.5625
scalar Network.dyn_peer[134] 	lookupStabilitySig:mean 	0.60177932400256
scalar Network.dyn_peer[134] 	lookupHopsSig:mean 	14.75
scalar Network.dyn_peer[135] 	lookupTimeSig:mean 	1.0625
scalar Network.dyn_peer[135] 	lookupStabilitySig:mean 	0.68273624125868
scalar Network.dyn_peer[135] 	lookupHopsSig:mean 	9.75
scalar Network.dyn_peer[136] 	lookupTimeSig:mean 	1.425
scalar Network.dyn_peer[136] 	lookupStabilitySig:mean 	0.56002997048199
scalar Network.dyn_peer[136] 	lookupHopsSig:mean 	13.5
scalar Network.dyn_peer[137] 	lookupTimeSig:mean 	1.42
scalar Network.dyn_peer[137] 	lookupStabilitySig:mean 	0.44087568819523
scalar Network.dyn_peer[137] 	lookupHopsSig:mean 	13.4
scalar Network.dyn_peer[138] 	lookupTimeSig:mean 	1.7
scalar Network.dyn_peer[138] 	lookupStabilitySig:mean 	0.77929168394102
scalar Network.dyn_peer[138] 	lookupHopsSig:mean 	16.142857142857
scalar Network.dyn_peer[139] 	lookupTimeSig:mean 	1.1714285714286
scalar Network.dyn_peer[139] 	lookupStabilitySig:mean 	0.77285487790193
scalar Network.dyn_peer[139] 	lookupHopsSig:mean 	10.857142857143
scalar Network.dyn_peer[140] 	lookupTimeSig:mean 	1.1
scalar Network.dyn_peer[140] 	lookupStabilitySig:mean 	0.78875191762511
scalar Network.dyn_peer[140] 	lookupHopsSig:mean 	10.142857142857
scalar Network.dyn_peer[141] 	lookupTimeSig:mean 	0.9
scalar Network.dyn_peer[141] 	lookupStabilitySig:mean 	0.87944648063017
scalar Network.dyn_peer[141] 	lookupHopsSig:mean 	8.1111111111111
scalar Network.dyn_peer[142] 	lookupTimeSig:mean 	2.4833333333333
scalar Network.dyn_peer[142] 	lookupStabilitySig:mean 	0.86840362598499
scalar Network.dyn_peer[142] 	lookupHopsSig:mean 	24
scalar Network.dyn_peer[143] 	lookupTimeSig:mean 	2
scalar Network.dyn_peer[143] 	lookupStabilitySig:mean 	0.59536392055452
scalar Network.dyn_peer[143] 	lookupHopsSig:mean 	19.142857142857
scalar Network.dyn_peer[144] 	lookupTimeSig:mean 	0.6
scalar Network.dyn_peer[144] 	lookupStabilitySig:mean 	0.22901783883572
scalar Network.dyn_peer[144] 	lookupHopsSig:mean 	5.25
scalar Network.dyn_peer[145] 	lookupTimeSig:mean 	1.375
scalar Network.dyn_peer[145] 	lookupStabilitySig:mean 	0.67038472276181
scalar Network.dyn_peer[145] 	lookupHopsSig:mean 	13
scalar Network.dyn_peer[146] 	lookupTimeSig:mean 	0.97
scalar Network.dyn_peer[146] 	lookupStabilitySig:mean 	0.6963260108605
scalar Network.dyn_peer[146] 	lookupHopsSig:mean 	8.8
scalar Network.dyn_peer[147] 	lookupTimeSig:mean 	0.65
scalar Network.dyn_peer[147] 	lookupStabilitySig:mean 	0.29549932107329
scalar Network.dyn_peer[147] 	lookupHopsSig:mean 	5.75
scalar Network.dyn_peer[148] 	lookupTimeSig:mean 	1.0727272727273
scalar Network.dyn_peer[148] 	lookupStabilitySig:mean 	0.95528731076047
scalar Network.dyn_peer[148] 	lookupHopsSig:mean 	9.8181818181818
scalar Network.dyn_peer[149] 	lookupTimeSig:mean 	1.19
scalar Network.dyn_peer[149] 	lookupStabilitySig:mean 	0.89929366251454
scalar Network.dyn_peer[149] 	lookupHopsSig:mean 	11
scalar Network.dyn_peer[150] 	lookupTimeSig:mean 	1.1285714285714
scalar Network.dyn_peer[150] 	lookupStabilitySig:mean 	0.79234250252401
scalar Network.dyn_peer[150] 	lookupHopsSig:mean 	10.357142857143
scalar Network.dyn_peer[151] 	lookupTimeSig:mean 	2
scalar Network.dyn_peer[151] 	lookupStabilitySig:mean 	0.43058181305726
scalar Network.dyn_peer[151] 	lookupHopsSig:mean 	19.333333333333
scalar Network.dyn_peer[152] 	lookupTimeSig:mean 	2.4
scalar Network.dyn_peer[152] 	lookupStabilitySig:mean 	0.31430447846651
scalar Network.dyn_peer[152] 	lookupHopsSig:mean 	23.5
scalar Network.dyn_peer[153] 	lookupTimeSig:mean 	1.26
scalar Network.dyn_peer[153] 	lookupStabilitySig:mean 	0.480552688241
scalar Network.dyn_peer[153] 	lookupHopsSig:mean 	11.8
scalar Network.dyn_peer[154] 	lookupTimeSig:mean 	1.3875
scalar Network.dyn_peer[154] 	lookupStabilitySig:mean 	0.90272246446693
scalar Network.dyn_peer[154] 	lookupHopsSig:mean 	13
scalar Network.dyn_peer[155] 	lookupTimeSig:mean 	1.8090909090909
scalar Network.dyn_peer[155] 	lookupStabilitySig:mean 	0.91458760371262
scalar Network.dyn_peer[155] 	lookupHopsSig:mean 	17.181818181818
scalar Network.dyn_peer[156] 	lookupTimeSig:mean 	1.3
scalar Network.dyn_peer[156] 	lookupStabilitySig:mean 	0.4075832426548
scalar Network.dyn_peer[156] 	lookupHopsSig:mean 	12.2
scalar Network.dyn_peer[157] 	lookupTimeSig:mean 	1.05
scalar Network.dyn_peer[157] 	lookupStabilitySig:mean 	0.69885849877028
scalar Network.dyn_peer[157] 	lookupHopsSig:mean 	9.625
scalar Network.dyn_peer[158] 	lookupTimeSig:mean 	1.3090909090909
scalar Network.dyn_peer[158] 	lookupStabilitySig:mean 	0.94667937987569
scalar Network.dyn_peer[158] 	lookupHopsSig:mean 	12.181818181818
scalar Network.dyn_peer[159] 	lookupTimeSig:mean 	2.0857142857143
scalar Network.dyn_peer[159] 	lookupStabilitySig:mean 	0.92492979552065
scalar Network.dyn_peer[159] 	lookupHopsSig:mean 	20
scalar Network.dyn_peer[160] 	lookupTimeSig:mean 	1
scalar Network.dyn_peer[160] 	lookupStabilitySig:mean 	0.44983372427523
scalar Network.dyn_peer[160] 	lookupHopsSig:mean 	9.2
scalar Network.dyn_peer[161] 	lookupTimeSig:mean 	1.22
scalar Network.dyn_peer[161] 	lookupStabilitySig:mean 	0.36224613413215
scalar Network.dyn_peer[161] 	lookupHopsSig:mean 	11.4
scalar Network.dyn_peer[162] 	lookupTimeSig:mean 	1.625
scalar Network.dyn_peer[162] 	lookupStabilitySig:mean 	0.47205203957856
scalar Network.dyn_peer[162] 	lookupHopsSig:mean 	15.5
scalar Network.dyn_peer[163] 	lookupTimeSig:mean 	1.4
scalar Network.dyn_peer[163] 	lookupStabilitySig:mean 	0.31208791335424
scalar Network.dyn_peer[163] 	lookupHopsSig:mean 	13.333333333333
scalar Network.dyn_peer[164] 	lookupTimeSig:mean 	3.1333333333333
scalar Network.dyn_peer[164] 	lookupStabilitySig:mean 	0.68149947126706
scalar Network.dyn_peer[164] 	lookupHopsSig:mean 	30.666666666667
scalar Network.dyn_peer[165] 	lookupTimeSig:mean 	1
scalar Network.dyn_peer[165] 	lookupStabilitySig:mean 	0.86495058388553
scalar Network.dyn_peer[165] 	lookupHopsSig:mean 	9.1111111111111
scalar Network.dyn_peer[166] 	lookupTimeSig:mean 	1.56
scalar Network.dyn_peer[166] 	lookupStabilitySig:mean 	0.37773771882057
scalar Network.dyn_peer[166] 	lookupHopsSig:mean 	14.8
scalar Network.dyn_peer[167] 	lookupTimeSig:mean 	0.825
scalar Network.dyn_peer[167] 	lookupStabilitySig:mean 	0.33534323424101
scalar Network.dyn_peer[167] 	lookupHopsSig:mean 	7.5
scalar Network.dyn_peer[168] 	lookupTimeSig:mean 	1.3428571428571
scalar Network.dyn_peer[168] 	lookupStabilitySig:mean 	0.76150515329625
scalar Network.dyn_peer[168] 	lookupHopsSig:mean 	12.571428571429
scalar Network.dyn_peer[169] 	lookupTimeSig:mean 	2.0166666666667
scalar Network.dyn_peer[169] 	lookupStabilitySig:mean 	0.68325819013019
scalar Network.dyn_peer[169] 	lookupHopsSig:mean 	19.333333333333
scalar Network.dyn_peer[170] 	lookupTimeSig:mean 	1.44
scalar Network.dyn_peer[170] 	lookupStabilitySig:mean 	0.53926072120667
scalar Network.dyn_peer[170] 	lookupHopsSig:mean 	13.6
scalar Network.dyn_peer[171] 	lookupTimeSig:mean 	1.325
scalar Network.dyn_peer[171] 	lookupStabilitySig:mean 	0.32734662480652
scalar Network.dyn_peer[171] 	lookupHopsSig:mean 	12.5
scalar Network.dyn_peer[172] 	lookupTimeSig:mean 	1.2
scalar Network.dyn_peer[172] 	lookupStabilitySig:mean 	0.92372341948346
scalar Network.dyn_peer[172] 	lookupHopsSig:mean 	11.076923076923
scalar Network.dyn_peer[173] 	lookupTimeSig:mean 	1.0666666666667
scalar Network.dyn_peer[173] 	lookupStabilitySig:mean 	0.77612897908936
scalar Network.dyn_peer[173] 	lookupHopsSig:mean 	9.8333333333333
scalar Network.dyn_peer[174] 	lookupTimeSig:mean 	1.1222222222222
scalar Network.dyn_peer[174] 	lookupStabilitySig:mean 	0.89199078165823
scalar Network.dyn_peer[174] 	lookupHopsSig:mean 	10.333333333333
scalar Network.dyn_peer[175] 	lookupTimeSig:mean 	2.7666666666667
scalar Network.dyn_peer[175] 	lookupStabilitySig:mean 	0.68026469523708
scalar Network.dyn_peer[175] 	lookupHopsSig:mean 	27
scalar Network.dyn_peer[176] 	lookupTimeSig:mean 	1.1166666666667
scalar Network.dyn_peer[176] 	lookupStabilitySig:mean 	0.7630700469017
scalar Network.dyn_peer[176] 	lookupHopsSig:mean 	10.25
scalar Network.dyn_peer[177] 	lookupTimeSig:mean 	1.48125
scalar Network.dyn_peer[177] 	lookupStabilitySig:mean 	0.95582627406111
scalar Network.dyn_peer[177] 	lookupHopsSig:mean 	13.875
scalar Network.dyn_peer[178] 	lookupTimeSig:mean 	1.5833333333333
scalar Network.dyn_peer[178] 	lookupStabilitySig:mean 	0.83166086704781
scalar Network.dyn_peer[178] 	lookupHopsSig:mean 	15
scalar Network.dyn_peer[179] 	lookupTimeSig:mean 	0.8
scalar Network.dyn_peer[179] 	lookupStabilitySig:mean 	-0.35714286565781
scalar Network.dyn_peer[179] 	lookupHopsSig:mean 	7.5
scalar Network.dyn_peer[180] 	lookupTimeSig:mean 	1.26
scalar Network.dyn_peer[180] 	lookupStabilitySig:mean 	0.62958011329174
scalar Network.dyn_peer[180] 	lookupHopsSig:mean 	11.8
scalar Network.dyn_peer[181] 	lookupTimeSig:mean 	2.9
scalar Network.dyn_peer[181] 	lookupStabilitySig:mean 	-0.18195485323668
scalar Network.dyn_peer[181] 	lookupHopsSig:mean 	28.5
scalar Network.dyn_peer[182] 	lookupTimeSig:mean 	1.475
scalar Network.dyn_peer[182] 	lookupStabilitySig:mean 	0.29475944675505
scalar Network.dyn_peer[182] 	lookupHopsSig:mean 	14
scalar Network.dyn_peer[183] 	lookupTimeSig:mean 	0.78
scalar Network.dyn_peer[183] 	lookupStabilitySig:mean 	0.83474001931027
scalar Network.dyn_peer[183] 	lookupHopsSig:mean 	6.9
scalar Network.dyn_peer[184] 	lookupTimeSig:mean 	2.7
scalar Network.dyn_peer[184] 	lookupStabilitySig:mean 	0.80433018505573
scalar Network.dyn_peer[184] 	lookupHopsSig:mean 	26.333333333333
scalar Network.dyn_peer[185] 	lookupTimeSig:mean 	1.5
scalar Network.dyn_peer[185] 	lookupStabilitySig:mean 	0.58904740214348
scalar Network.dyn_peer[185] 	lookupHopsSig:mean 	14.333333333333
scalar Network.dyn_peer[186] 	lookupTimeSig:mean 	1.25
scalar Network.dyn_peer[186] 	lookupStabilitySig:mean 	0.43028391897678
scalar Network.dyn_peer[186] 	lookupHopsSig:mean 	11.75
scalar Network.dyn_peer[187] 	lookupTimeSig:mean 	1.4166666666667
scalar Network.dyn_peer[187] 	lookupStabilitySig:mean 	0.82249231574436
scalar Network.dyn_peer[187] 	lookupHopsSig:mean 	13.333333333333
scalar Network.dyn_peer[188] 	lookupTimeSig:mean 	1.0555555555556
scalar Network.dyn_peer[188] 	lookupStabilitySig:mean 	0.92700687661353
scalar Network.dyn_peer[188] 	lookupHopsSig:mean 	9.6666666666667
scalar Network.dyn_peer[189] 	lookupTimeSig:mean 	1.1666666666667
scalar Network.dyn_peer[189] 	lookupStabilitySig:mean 	0.32777776320775
scalar Network.dyn_peer[189] 	lookupHopsSig:mean 	11
scalar Network.dyn_peer[190] 	lookupTimeSig:mean 	1.3875
scalar Network.dyn_peer[190] 	lookupStabilitySig:mean 	0.63450944691431
scalar Network.dyn_peer[190] 	lookupHopsSig:mean 	13
scalar Network.dyn_peer[191] 	lookupTimeSig:mean 	1.3285714285714
scalar Network.dyn_peer[191] 	lookupStabilitySig:mean 	0.72250877480422
scalar Network.dyn_peer[191] 	lookupHopsSig:mean 	12.428571428571
scalar Network.dyn_peer[192] 	lookupTimeSig:mean 	1.16
scalar Network.dyn_peer[192] 	lookupStabilitySig:mean 	0.82714158818126
scalar Network.dyn_peer[192] 	lookupHopsSig:mean 	10.8
scalar Network.dyn_peer[193] 	lookupTimeSig:mean 	1.525
scalar Network.dyn_peer[193] 	lookupStabilitySig:mean 	0.61422478128225
scalar Network.dyn_peer[193] 	lookupHopsSig:mean 	14.5
scalar Network.dyn_peer[194] 	lookupTimeSig:mean 	2.15
scalar Network.dyn_peer[194] 	lookupStabilitySig:mean 	0.24931973218918
scalar Network.dyn_peer[194] 	lookupHopsSig:mean 	21
scalar Network.dyn_peer[195] 	lookupTimeSig:mean 	0.9
scalar Network.dyn_peer[195] 	lookupStabilitySig:mean 	-0.26923078298569
scalar Network.dyn_peer[195] 	lookupHopsSig:mean 	8.5
scalar Network.dyn_peer[196] 	lookupTimeSig:mean 	1.2142857142857
scalar Network.dyn_peer[196] 	lookupStabilitySig:mean 	0.7182483662452
scalar Network.dyn_peer[196] 	lookupHopsSig:mean 	11.285714285714
scalar Network.dyn_peer[197] 	lookupTimeSig:mean 	0.95454545454545
scalar Network.dyn_peer[197] 	lookupStabilitySig:mean 	0.7850219514221
scalar Network.dyn_peer[197] 	lookupHopsSig:mean 	8.6363636363636
scalar Network.dyn_peer[198] 	lookupTimeSig:mean 	2.05
scalar Network.dyn_peer[198] 	lookupStabilitySig:mean 	0.6899641584605
scalar Network.dyn_peer[198] 	lookupHopsSig:mean 	20
scalar Network.dyn_peer[199] 	lookupTimeSig:mean 	1.875
scalar Network.dyn_peer[199] 	lookupStabilitySig:mean 	0.36337320040911
scalar Network.dyn_peer[199] 	lookupHopsSig:mean 	18
scalar Network.dyn_peer[200] 	lookupTimeSig:mean 	1.3666666666667
scalar Network.dyn_peer[200] 	lookupStabilitySig:mean 	0.63313910954942
scalar Network.dyn_peer[200] 	lookupHopsSig:mean 	12.833333333333
scalar Network.dyn_peer[201] 	lookupTimeSig:mean 	1.9
scalar Network.dyn_peer[201] 	lookupStabilitySig:mean 	0.7216794796288
scalar Network.dyn_peer[201] 	lookupHopsSig:mean 	18.2
scalar Network.dyn_peer[202] 	lookupTimeSig:mean 	1.1714285714286
scalar Network.dyn_peer[202] 	lookupStabilitySig:mean 	0.89682835234063
scalar Network.dyn_peer[202] 	lookupHopsSig:mean 	10.857142857143
scalar Network.dyn_peer[203] 	lookupTimeSig:mean 	1.4142857142857
scalar Network.dyn_peer[203] 	lookupStabilitySig:mean 	0.7565923861361
scalar Network.dyn_peer[203] 	lookupHopsSig:mean 	13.285714285714
scalar Network.dyn_peer[204] 	lookupTimeSig:mean 	1.05
scalar Network.dyn_peer[204] 	lookupStabilitySig:mean 	-0.33333329856396
scalar Network.dyn_peer[204] 	lookupHopsSig:mean 	10
scalar Network.dyn_peer[205] 	lookupTimeSig:mean 	1.5
scalar Network.dyn_peer[205] 	lookupStabilitySig:mean 	0.85777056065854
scalar Network.dyn_peer[205] 	lookupHopsSig:mean 	14.125
scalar Network.dyn_peer[206] 	lookupTimeSig:mean 	1.525
scalar Network.dyn_peer[206] 	lookupStabilitySig:mean 	0.29303831234574
scalar Network.dyn_peer[206] 	lookupHopsSig:mean 	14.5
scalar Network.dyn_peer[207] 	lookupTimeSig:mean 	0.725
scalar Network.dyn_peer[207] 	lookupStabilitySig:mean 	0.87847920611966
scalar Network.dyn_peer[207] 	lookupHopsSig:mean 	6.3333333333333
scalar Network.dyn_peer[208] 	lookupTimeSig:mean 	0.76666666666667
scalar Network.dyn_peer[208] 	lookupStabilitySig:mean 	0.22608694930871
scalar Network.dyn_peer[208] 	lookupHopsSig:mean 	7
scalar Network.dyn_peer[209] 	lookupTimeSig:mean 	0.82222222222222
scalar Network.dyn_peer[209] 	lookupStabilitySig:mean 	0.68426476346536
scalar Network.dyn_peer[209] 	lookupHopsSig:mean 	7.3333333333333
scalar Network.dyn_peer[210] 	lookupTimeSig:mean 	1.42
scalar Network.dyn_peer[210] 	lookupStabilitySig:mean 	0.76803022921085
scalar Network.dyn_peer[210] 	lookupHopsSig:mean 	13.4
scalar Network.dyn_peer[211] 	lookupTimeSig:mean 	1.9857142857143
scalar Network.dyn_peer[211] 	lookupStabilitySig:mean 	0.92417787534318
scalar Network.dyn_peer[211] 	lookupHopsSig:mean 	19
scalar Network.dyn_peer[212] 	lookupTimeSig:mean 	1.4285714285714
scalar Network.dyn_peer[212] 	lookupStabilitySig:mean 	0.94911980123392
scalar Network.dyn_peer[212] 	lookupHopsSig:mean 	13.428571428571
scalar Network.dyn_peer[213] 	lookupTimeSig:mean 	0.72
scalar Network.dyn_peer[213] 	lookupStabilitySig:mean 	0.58176360577345
scalar Network.dyn_peer[213] 	lookupHopsSig:mean 	6.4
scalar Network.dyn_peer[214] 	lookupTimeSig:mean 	0.93333333333333
scalar Network.dyn_peer[214] 	lookupStabilitySig:mean 	0.072844266891479
scalar Network.dyn_peer[214] 	lookupHopsSig:mean 	8.6666666666667
scalar Network.dyn_peer[215] 	lookupTimeSig:mean 	1.5142857142857
scalar Network.dyn_peer[215] 	lookupStabilitySig:mean 	0.79548130407264
scalar Network.dyn_peer[215] 	lookupHopsSig:mean 	14.285714285714
scalar Network.dyn_peer[216] 	lookupTimeSig:mean 	1.34
scalar Network.dyn_peer[216] 	lookupStabilitySig:mean 	0.73138251341879
scalar Network.dyn_peer[216] 	lookupHopsSig:mean 	12.6
scalar Network.dyn_peer[217] 	lookupTimeSig:mean 	1.35
scalar Network.dyn_peer[217] 	lookupStabilitySig:mean 	0.48031537421048
scalar Network.dyn_peer[217] 	lookupHopsSig:mean 	12.75
scalar Network.dyn_peer[218] 	lookupTimeSig:mean 	1.35
scalar Network.dyn_peer[218] 	lookupStabilitySig:mean 	-0.23809520900249
scalar Network.dyn_peer[218] 	lookupHopsSig:mean 	13
scalar Network.dyn_peer[219] 	lookupTimeSig:mean 	1.8625
scalar Network.dyn_peer[219] 	lookupStabilitySig:mean 	0.85202542331535
scalar Network.dyn_peer[219] 	lookupHopsSig:mean 	17.75
scalar Network.dyn_peer[220] 	lookupTimeSig:mean 	2.2
scalar Network.dyn_peer[220] 	lookupStabilitySig:mean 	0.74301346577704
scalar Network.dyn_peer[220] 	lookupHopsSig:mean 	21.333333333333
scalar Network.dyn_peer[221] 	lookupTimeSig:mean 	1.925
scalar Network.dyn_peer[221] 	lookupStabilitySig:mean 	0.40811101533473
scalar Network.dyn_peer[221] 	lookupHopsSig:mean 	18.5
scalar Network.dyn_peer[222] 	lookupTimeSig:mean 	0.9
scalar Network.dyn_peer[222] 	lookupStabilitySig:mean 	0.76448114045585
scalar Network.dyn_peer[222] 	lookupHopsSig:mean 	8.1666666666667
scalar Network.dyn_peer[223] 	lookupTimeSig:mean 	1.4
scalar Network.dyn_peer[223] 	lookupStabilitySig:mean 	0.9267497761175
scalar Network.dyn_peer[223] 	lookupHopsSig:mean 	13.142857142857
scalar Network.dyn_peer[224] 	lookupTimeSig:mean 	3.1
scalar Network.dyn_peer[224] 	lookupStabilitySig:mean 	0.36729857325554
scalar Network.dyn_peer[224] 	lookupHopsSig:mean 	30.5
scalar Network.dyn_peer[225] 	lookupTimeSig:mean 	1.775
scalar Network.dyn_peer[225] 	lookupStabilitySig:mean 	0.45641772076488
scalar Network.dyn_peer[225] 	lookupHopsSig:mean 	17
scalar Network.dyn_peer[226] 	lookupTimeSig:mean 	1.85
scalar Network.dyn_peer[226] 	lookupStabilitySig:mean 	0.87964119948447
scalar Network.dyn_peer[226] 	lookupHopsSig:mean 	17.75
scalar Network.dyn_peer[227] 	lookupTimeSig:mean 	1.5555555555556
scalar Network.dyn_peer[227] 	lookupStabilitySig:mean 	0.93914165285726
scalar Network.dyn_peer[227] 	lookupHopsSig:mean 	14.666666666667
scalar Network.dyn_peer[228] 	lookupTimeSig:mean 	1.5
scalar Network.dyn_peer[228] 	lookupStabilitySig:mean 	0.12625978887081
scalar Network.dyn_peer[228] 	lookupHopsSig:mean 	14.333333333333
scalar Network.dyn_peer[229] 	lookupTimeSig:mean 	1.35
scalar Network.dyn_peer[229] 	lookupStabilitySig:mean 	0.61864034458995
scalar Network.dyn_peer[229] 	lookupHopsSig:mean 	12.75
scalar Network.dyn_peer[230] 	lookupTimeSig:mean 	1.1714285714286
scalar Network.dyn_peer[230] 	lookupStabilitySig:mean 	0.7423900823508
scalar Network.dyn_peer[230] 	lookupHopsSig:mean 	10.857142857143
scalar Network.dyn_peer[231] 	lookupTimeSig:mean 	1.6
scalar Network.dyn_peer[231] 	lookupStabilitySig:mean 	0.93591005740953
scalar Network.dyn_peer[231] 	lookupHopsSig:mean 	15.142857142857
scalar Network.dyn_peer[232] 	lookupTimeSig:mean 	1.6
scalar Network.dyn_peer[232] 	lookupStabilitySig:mean 	0.59520928242377
scalar Network.dyn_peer[232] 	lookupHopsSig:mean 	15.142857142857
scalar Network.dyn_peer[233] 	lookupTimeSig:mean 	1.2571428571429
scalar Network.dyn_peer[233] 	lookupStabilitySig:mean 	0.86327556573919
scalar Network.dyn_peer[233] 	lookupHopsSig:mean 	11.714285714286
scalar Network.dyn_peer[234] 	lookupTimeSig:mean 	1.425
scalar Network.dyn_peer[234] 	lookupStabilitySig:mean 	0.66467282641679
scalar Network.dyn_peer[234] 	lookupHopsSig:mean 	13.5
scalar Network.dyn_peer[235] 	lookupTimeSig:mean 	1.1125
scalar Network.dyn_peer[235] 	lookupStabilitySig:mean 	0.8039125992218
scalar Network.dyn_peer[235] 	lookupHopsSig:mean 	10.25
scalar Network.dyn_peer[236] 	lookupTimeSig:mean 	1.4
scalar Network.dyn_peer[236] 	lookupStabilitySig:mean 	0.4710526317358
scalar Network.dyn_peer[236] 	lookupHopsSig:mean 	13.5
scalar Network.dyn_peer[237] 	lookupTimeSig:mean 	1.675
scalar Network.dyn_peer[237] 	lookupStabilitySig:mean 	0.64203644916415
scalar Network.dyn_peer[237] 	lookupHopsSig:mean 	16
scalar Network.dyn_peer[238] 	lookupTimeSig:mean 	1.225
scalar Network.dyn_peer[238] 	lookupStabilitySig:mean 	0.65209811925888
scalar Network.dyn_peer[238] 	lookupHopsSig:mean 	11.5
scalar Network.dyn_peer[239] 	lookupTimeSig:mean 	1.46
scalar Network.dyn_peer[239] 	lookupStabilitySig:mean 	0.37070292979479
scalar Network.dyn_peer[239] 	lookupHopsSig:mean 	13.8
scalar Network.dyn_peer[240] 	lookupTimeSig:mean 	1.225
scalar Network.dyn_peer[240] 	lookupStabilitySig:mean 	0.48159429617226
scalar Network.dyn_peer[240] 	lookupHopsSig:mean 	11.5
scalar Network.dyn_peer[241] 	lookupTimeSig:mean 	1.725
scalar Network.dyn_peer[241] 	lookupStabilitySig:mean 	0.56707741972059
scalar Network.dyn_peer[241] 	lookupHopsSig:mean 	16.5
scalar Network.dyn_peer[242] 	lookupTimeSig:mean 	1.3230769230769
scalar Network.dyn_peer[242] 	lookupStabilitySig:mean 	0.86265788449404
scalar Network.dyn_peer[242] 	lookupHopsSig:mean 	12.307692307692
scalar Network.dyn_peer[243] 	lookupTimeSig:mean 	1.325
scalar Network.dyn_peer[243] 	lookupStabilitySig:mean 	0.92246358562261
scalar Network.dyn_peer[243] 	lookupHopsSig:mean 	12.375
scalar Network.dyn_peer[244] 	lookupTimeSig:mean 	1.0466666666667
scalar Network.dyn_peer[244] 	lookupStabilitySig:mean 	0.9067566328682
scalar Network.dyn_peer[244] 	lookupHopsSig:mean 	9.5333333333333
scalar Network.dyn_peer[245] 	lookupTimeSig:mean 	1.3666666666667
scalar Network.dyn_peer[245] 	lookupStabilitySig:mean 	0.73837386428689
scalar Network.dyn_peer[245] 	lookupHopsSig:mean 	12.833333333333
scalar Network.dyn_peer[246] 	lookupTimeSig:mean 	1.25
scalar Network.dyn_peer[246] 	lookupStabilitySig:mean 	0.67531835163633
scalar Network.dyn_peer[246] 	lookupHopsSig:mean 	11.666666666667
scalar Network.dyn_peer[247] 	lookupTimeSig:mean 	0.90666666666667
scalar Network.dyn_peer[247] 	lookupStabilitySig:mean 	0.85575065705925
scalar Network.dyn_peer[247] 	lookupHopsSig:mean 	8.1333333333333
scalar Network.dyn_peer[248] 	lookupTimeSig:mean 	1.3125
scalar Network.dyn_peer[248] 	lookupStabilitySig:mean 	0.92401122348383
scalar Network.dyn_peer[248] 	lookupHopsSig:mean 	12.25
scalar Network.dyn_peer[249] 	lookupTimeSig:mean 	1.21
scalar Network.dyn_peer[249] 	lookupStabilitySig:mean 	0.8133654654026
scalar Network.dyn_peer[249] 	lookupHopsSig:mean 	11.2
scalar Network.dyn_peer[250] 	lookupTimeSig:mean 	1.475
scalar Network.dyn_peer[250] 	lookupStabilitySig:mean 	0.77953940738613
scalar Network.dyn_peer[250] 	lookupHopsSig:mean 	13.833333333333
scalar Network.dyn_peer[251] 	lookupTimeSig:mean 	1.2454545454545
scalar Network.dyn_peer[251] 	lookupStabilitySig:mean 	0.72277715615928
scalar Network.dyn_peer[251] 	lookupHopsSig:mean 	11.545454545455
scalar Network.dyn_peer[252] 	lookupTimeSig:mean 	1.5666666666667
scalar Network.dyn_peer[252] 	lookupStabilitySig:mean 	0.80392296612263
scalar Network.dyn_peer[252] 	lookupHopsSig:mean 	14.833333333333
scalar Network.dyn_peer[253] 	lookupTimeSig:mean 	1.8
scalar Network.dyn_peer[253] 	lookupStabilitySig:mean 	0.1978682205081
scalar Network.dyn_peer[253] 	lookupHopsSig:mean 	17.333333333333
scalar Network.dyn_peer[254] 	lookupTimeSig:mean 	1.14
scalar Network.dyn_peer[254] 	lookupStabilitySig:mean 	0.58117574248463
scalar Network.dyn_peer[254] 	lookupHopsSig:mean 	10.6
scalar Network.dyn_peer[255] 	lookupTimeSig:mean 	1.25
scalar Network.dyn_peer[255] 	lookupStabilitySig:mean 	0.73550075816456
scalar Network.dyn_peer[255] 	lookupHopsSig:mean 	11.625
scalar Network.dyn_peer[256] 	lookupTimeSig:mean 	1.75
scalar Network.dyn_peer[256] 	lookupStabilitySig:mean 	0.71546296961606
scalar Network.dyn_peer[256] 	lookupHopsSig:mean 	16.75
scalar Network.dyn_peer[257] 	lookupTimeSig:mean 	1.0727272727273
scalar Network.dyn_peer[257] 	lookupStabilitySig:mean 	0.81562302007594
scalar Network.dyn_peer[257] 	lookupHopsSig:mean 	9.8181818181818
scalar Network.dyn_peer[258] 	lookupTimeSig:mean 	1.43
scalar Network.dyn_peer[258] 	lookupStabilitySig:mean 	0.89910150193609
scalar Network.dyn_peer[258] 	lookupHopsSig:mean 	13.4
scalar Network.dyn_peer[259] 	lookupTimeSig:mean 	1.6125
scalar Network.dyn_peer[259] 	lookupStabilitySig:mean 	0.9434512455482
scalar Network.dyn_peer[259] 	lookupHopsSig:mean 	15.25
scalar Network.dyn_peer[260] 	lookupTimeSig:mean 	1.2333333333333
scalar Network.dyn_peer[260] 	lookupStabilitySig:mean 	0.8457179699714
scalar Network.dyn_peer[260] 	lookupHopsSig:mean 	11.5
scalar Network.dyn_peer[261] 	lookupTimeSig:mean 	1.725
scalar Network.dyn_peer[261] 	lookupStabilitySig:mean 	0.67852323874831
scalar Network.dyn_peer[261] 	lookupHopsSig:mean 	16.5
scalar Network.dyn_peer[262] 	lookupTimeSig:mean 	1.4727272727273
scalar Network.dyn_peer[262] 	lookupStabilitySig:mean 	0.8199226855385
scalar Network.dyn_peer[262] 	lookupHopsSig:mean 	13.818181818182
scalar Network.dyn_peer[263] 	lookupTimeSig:mean 	1.6
scalar Network.dyn_peer[263] 	lookupStabilitySig:mean 	0.51783736608922
scalar Network.dyn_peer[263] 	lookupHopsSig:mean 	15.25
scalar Network.dyn_peer[264] 	lookupTimeSig:mean 	1.5
scalar Network.dyn_peer[264] 	lookupStabilitySig:mean 	0.74054538769027
scalar Network.dyn_peer[264] 	lookupHopsSig:mean 	14.166666666667
scalar Network.dyn_peer[265] 	lookupTimeSig:mean 	1.3285714285714
scalar Network.dyn_peer[265] 	lookupStabilitySig:mean 	0.76628655301673
scalar Network.dyn_peer[265] 	lookupHopsSig:mean 	12.428571428571
scalar Network.dyn_peer[266] 	lookupTimeSig:mean 	1.5142857142857
scalar Network.dyn_peer[266] 	lookupStabilitySig:mean 	0.91025024692395
scalar Network.dyn_peer[266] 	lookupHopsSig:mean 	14.285714285714
scalar Network.dyn_peer[267] 	lookupTimeSig:mean 	1.2875
scalar Network.dyn_peer[267] 	lookupStabilitySig:mean 	0.93758728573448
scalar Network.dyn_peer[267] 	lookupHopsSig:mean 	12
scalar Network.dyn_peer[268] 	lookupTimeSig:mean 	1.175
scalar Network.dyn_peer[268] 	lookupStabilitySig:mean 	0.58623898029327
scalar Network.dyn_peer[268] 	lookupHopsSig:mean 	11
scalar Network.dyn_peer[269] 	lookupTimeSig:mean 	0.94
scalar Network.dyn_peer[269] 	lookupStabilitySig:mean 	0.59660114645958
scalar Network.dyn_peer[269] 	lookupHopsSig:mean 	8.6
scalar Network.dyn_peer[270] 	lookupTimeSig:mean 	1.1166666666667
scalar Network.dyn_peer[270] 	lookupStabilitySig:mean 	0.66098260382811
scalar Network.dyn_peer[270] 	lookupHopsSig:mean 	10.333333333333
scalar Network.dyn_peer[271] 	lookupTimeSig:mean 	0.775
scalar Network.dyn_peer[271] 	lookupStabilitySig:mean 	0.31806061975658
scalar Network.dyn_peer[271] 	lookupHopsSig:mean 	7
scalar Network.dyn_peer[272] 	lookupTimeSig:mean 	1.6
scalar Network.dyn_peer[272] 	lookupStabilitySig:mean 	0.33064478139083
scalar Network.dyn_peer[272] 	lookupHopsSig:mean 	15.333333333333
scalar Network.dyn_peer[273] 	lookupTimeSig:mean 	1.1666666666667
scalar Network.dyn_peer[273] 	lookupStabilitySig:mean 	0.21563610931238
scalar Network.dyn_peer[273] 	lookupHopsSig:mean 	11
scalar Network.dyn_peer[274] 	lookupTimeSig:mean 	0.98888888888889
scalar Network.dyn_peer[274] 	lookupStabilitySig:mean 	0.7901087452968
scalar Network.dyn_peer[274] 	lookupHopsSig:mean 	9
scalar Network.dyn_peer[275] 	lookupTimeSig:mean 	1.3375
scalar Network.dyn_peer[275] 	lookupStabilitySig:mean 	0.93129867967218
scalar Network.dyn_peer[275] 	lookupHopsSig:mean 	12.5
scalar Network.dyn_peer[276] 	lookupTimeSig:mean 	1.3
scalar Network.dyn_peer[276] 	lookupStabilitySig:mean 	0.21322021881739
scalar Network.dyn_peer[276] 	lookupHopsSig:mean 	12.333333333333
scalar Network.dyn_peer[277] 	lookupTimeSig:mean 	2.325
scalar Network.dyn_peer[277] 	lookupStabilitySig:mean 	0.47303894162178
scalar Network.dyn_peer[277] 	lookupHopsSig:mean 	22.5
scalar Network.dyn_peer[278] 	lookupTimeSig:mean 	0.85454545454545
scalar Network.dyn_peer[278] 	lookupStabilitySig:mean 	0.73966052628715
scalar Network.dyn_peer[278] 	lookupHopsSig:mean 	7.6363636363636
scalar Network.dyn_peer[279] 	lookupTimeSig:mean 	1.0833333333333
scalar Network.dyn_peer[279] 	lookupStabilitySig:mean 	0.66707222287854
scalar Network.dyn_peer[279] 	lookupHopsSig:mean 	10
scalar Network.dyn_peer[280] 	lookupTimeSig:mean 	1.2714285714286
scalar Network.dyn_peer[280] 	lookupStabilitySig:mean 	0.83756985488747
scalar Network.dyn_peer[280] 	lookupHopsSig:mean 	11.857142857143
scalar Network.dyn_peer[281] 	lookupTimeSig:mean 	1.125
scalar Network.dyn_peer[281] 	lookupStabilitySig:mean 	0.60482187010348
scalar Network.dyn_peer[281] 	lookupHopsSig:mean 	10.5
scalar Network.dyn_peer[282] 	lookupTimeSig:mean 	1.7
scalar Network.dyn_peer[282] 	lookupStabilitySig:mean 	0.27068963646889
scalar Network.dyn_peer[282] 	lookupHopsSig:mean 	16.5
scalar Network.dyn_peer[283] 	lookupTimeSig:mean 	1.2857142857143
scalar Network.dyn_peer[283] 	lookupStabilitySig:mean 	0.71079810921635
scalar Network.dyn_peer[283] 	lookupHopsSig:mean 	12
scalar Network.dyn_peer[284] 	lookupTimeSig:mean 	1.7875
scalar Network.dyn_peer[284] 	lookupStabilitySig:mean 	0.75501840561628
scalar Network.dyn_peer[284] 	lookupHopsSig:mean 	17
scalar Network.dyn_peer[285] 	lookupTimeSig:mean 	3.2
scalar Network.dyn_peer[285] 	lookupStabilitySig:mean 	0.70764967054129
scalar Network.dyn_peer[285] 	lookupHopsSig:mean 	31.5
scalar Network.dyn_peer[286] 	lookupTimeSig:mean 	2.02
scalar Network.dyn_peer[286] 	lookupStabilitySig:mean 	0.81039022319019
scalar Network.dyn_peer[286] 	lookupHopsSig:mean 	19.4
scalar Network.dyn_peer[287] 	lookupTimeSig:mean 	0.76666666666667
scalar Network.dyn_peer[287] 	lookupStabilitySig:mean 	0.71812249378612
scalar Network.dyn_peer[287] 	lookupHopsSig:mean 	6.7777777777778
scalar Network.dyn_peer[288] 	lookupTimeSig:mean 	0.925
scalar Network.dyn_peer[288] 	lookupStabilitySig:mean 	0.45879184640944
scalar Network.dyn_peer[288] 	lookupHopsSig:mean 	8.5
scalar Network.dyn_peer[289] 	lookupTimeSig:mean 	1.125
scalar Network.dyn_peer[289] 	lookupStabilitySig:mean 	0.7469032095978
scalar Network.dyn_peer[289] 	lookupHopsSig:mean 	10.375
scalar Network.dyn_peer[290] 	lookupTimeSig:mean 	1.22
scalar Network.dyn_peer[290] 	lookupStabilitySig:mean 	0.46449308916926
scalar Network.dyn_peer[290] 	lookupHopsSig:mean 	11.4
scalar Network.dyn_peer[291] 	lookupTimeSig:mean 	1.06
scalar Network.dyn_peer[291] 	lookupStabilitySig:mean 	0.69880935512483
scalar Network.dyn_peer[291] 	lookupHopsSig:mean 	9.7
scalar Network.dyn_peer[292] 	lookupTimeSig:mean 	2.0333333333333
scalar Network.dyn_peer[292] 	lookupStabilitySig:mean 	0.51768561080098
scalar Network.dyn_peer[292] 	lookupHopsSig:mean 	19.666666666667
scalar Network.dyn_peer[293] 	lookupTimeSig:mean 	0.88
scalar Network.dyn_peer[293] 	lookupStabilitySig:mean 	0.59785920809954
scalar Network.dyn_peer[293] 	lookupHopsSig:mean 	8
scalar Network.dyn_peer[294] 	lookupTimeSig:mean 	1.8666666666667
scalar Network.dyn_peer[294] 	lookupStabilitySig:mean 	0.92311699067553
scalar Network.dyn_peer[294] 	lookupHopsSig:mean 	17.777777777778
scalar Network.dyn_peer[295] 	lookupTimeSig:mean 	1.76
scalar Network.dyn_peer[295] 	lookupStabilitySig:mean 	0.50811923220754
scalar Network.dyn_peer[295] 	lookupHopsSig:mean 	16.8
scalar Network.dyn_peer[296] 	lookupTimeSig:mean 	1.4777777777778
scalar Network.dyn_peer[296] 	lookupStabilitySig:mean 	0.74157049320638
scalar Network.dyn_peer[296] 	lookupHopsSig:mean 	13.888888888889
scalar Network.dyn_peer[297] 	lookupTimeSig:mean 	1.5333333333333
scalar Network.dyn_peer[297] 	lookupStabilitySig:mean 	0.50919638077418
scalar Network.dyn_peer[297] 	lookupHopsSig:mean 	14.666666666667
scalar Network.dyn_peer[298] 	lookupTimeSig:mean 	1.3666666666667
scalar Network.dyn_peer[298] 	lookupStabilitySig:mean 	0.14661834637324
scalar Network.dyn_peer[298] 	lookupHopsSig:mean 	13
scalar Network.dyn_peer[299] 	lookupTimeSig:mean 	2.22
scalar Network.dyn_peer[299] 	lookupStabilitySig:mean 	0.91398217640817
scalar Network.dyn_peer[299] 	lookupHopsSig:mean 	21.4
scalar Network.dyn_peer[300] 	lookupTimeSig:mean 	1.05
scalar Network.dyn_peer[300] 	lookupStabilitySig:mean 	0.73318769829348
scalar Network.dyn_peer[300] 	lookupHopsSig:mean 	9.75
scalar Network.dyn_peer[301] 	lookupTimeSig:mean 	1.5142857142857
scalar Network.dyn_peer[301] 	lookupStabilitySig:mean 	0.84050316842539
scalar Network.dyn_peer[301] 	lookupHopsSig:mean 	14.285714285714
scalar Network.dyn_peer[302] 	lookupTimeSig:mean 	1.5857142857143
scalar Network.dyn_peer[302] 	lookupStabilitySig:mean 	0.93948676889496
scalar Network.dyn_peer[302] 	lookupHopsSig:mean 	15
scalar Network.dyn_peer[303] 	lookupTimeSig:mean 	0.9
scalar Network.dyn_peer[303] 	lookupStabilitySig:mean 	0.78076841997413
scalar Network.dyn_peer[303] 	lookupHopsSig:mean 	8.0769230769231
scalar Network.dyn_peer[304] 	lookupTimeSig:mean 	1.4142857142857
scalar Network.dyn_peer[304] 	lookupStabilitySig:mean 	0.88405536301434
scalar Network.dyn_peer[304] 	lookupHopsSig:mean 	13.285714285714
scalar Network.dyn_peer[305] 	lookupTimeSig:mean 	1.7428571428571
scalar Network.dyn_peer[305] 	lookupStabilitySig:mean 	0.91238163118916
scalar Network.dyn_peer[305] 	lookupHopsSig:mean 	16.571428571429
scalar Network.dyn_peer[306] 	lookupTimeSig:mean 	1.325
scalar Network.dyn_peer[306] 	lookupStabilitySig:mean 	0.64495982602239
scalar Network.dyn_peer[306] 	lookupHopsSig:mean 	12.5
scalar Network.dyn_peer[307] 	lookupTimeSig:mean 	1.4083333333333
scalar Network.dyn_peer[307] 	lookupStabilitySig:mean 	0.9447995351317
scalar Network.dyn_peer[307] 	lookupHopsSig:mean 	13.166666666667
scalar Network.dyn_peer[308] 	lookupTimeSig:mean 	1.4833333333333
scalar Network.dyn_peer[308] 	lookupStabilitySig:mean 	0.61551083034525
scalar Network.dyn_peer[308] 	lookupHopsSig:mean 	14
scalar Network.dyn_peer[309] 	lookupTimeSig:mean 	1.3833333333333
scalar Network.dyn_peer[309] 	lookupStabilitySig:mean 	0.61788058963915
scalar Network.dyn_peer[309] 	lookupHopsSig:mean 	13
scalar Network.dyn_peer[310] 	lookupTimeSig:mean 	1.15
scalar Network.dyn_peer[310] 	lookupStabilitySig:mean 	0.35089188907295
scalar Network.dyn_peer[310] 	lookupHopsSig:mean 	10.75
scalar Network.dyn_peer[311] 	lookupTimeSig:mean 	1.4285714285714
scalar Network.dyn_peer[311] 	lookupStabilitySig:mean 	0.89891983808151
scalar Network.dyn_peer[311] 	lookupHopsSig:mean 	13.428571428571
scalar Network.dyn_peer[312] 	lookupTimeSig:mean 	1.1428571428571
scalar Network.dyn_peer[312] 	lookupStabilitySig:mean 	0.80986673943698
scalar Network.dyn_peer[312] 	lookupHopsSig:mean 	10.571428571429
scalar Network.dyn_peer[313] 	lookupTimeSig:mean 	1.975
scalar Network.dyn_peer[313] 	lookupStabilitySig:mean 	0.71925509441644
scalar Network.dyn_peer[313] 	lookupHopsSig:mean 	19
scalar Network.dyn_peer[314] 	lookupTimeSig:mean 	1.04
scalar Network.dyn_peer[314] 	lookupStabilitySig:mean 	0.69403502047062
scalar Network.dyn_peer[314] 	lookupHopsSig:mean 	9.6
scalar Network.dyn_peer[315] 	lookupTimeSig:mean 	1.06
scalar Network.dyn_peer[315] 	lookupStabilitySig:mean 	0.43144181519747
scalar Network.dyn_peer[315] 	lookupHopsSig:mean 	9.8
scalar Network.dyn_peer[316] 	lookupTimeSig:mean 	1.225
scalar Network.dyn_peer[316] 	lookupStabilitySig:mean 	0.71827231161296
scalar Network.dyn_peer[316] 	lookupHopsSig:mean 	11.5
scalar Network.dyn_peer[317] 	lookupTimeSig:mean 	1.42
scalar Network.dyn_peer[317] 	lookupStabilitySig:mean 	0.81817968711257
scalar Network.dyn_peer[317] 	lookupHopsSig:mean 	13.4
scalar Network.dyn_peer[318] 	lookupTimeSig:mean 	1.1142857142857
scalar Network.dyn_peer[318] 	lookupStabilitySig:mean 	0.68207910364228
scalar Network.dyn_peer[318] 	lookupHopsSig:mean 	10.285714285714
scalar Network.dyn_peer[319] 	lookupTimeSig:mean 	1.4111111111111
scalar Network.dyn_peer[319] 	lookupStabilitySig:mean 	0.94015901209787
scalar Network.dyn_peer[319] 	lookupHopsSig:mean 	13.222222222222
scalar Network.dyn_peer[320] 	lookupTimeSig:mean 	1.8666666666667
scalar Network.dyn_peer[320] 	lookupStabilitySig:mean 	0.66863406946262
scalar Network.dyn_peer[320] 	lookupHopsSig:mean 	18
scalar Network.dyn_peer[321] 	lookupTimeSig:mean 	1.85
scalar Network.dyn_peer[321] 	lookupStabilitySig:mean 	0.64461581036448
scalar Network.dyn_peer[321] 	lookupHopsSig:mean 	18
scalar Network.dyn_peer[322] 	lookupTimeSig:mean 	1.6
scalar Network.dyn_peer[322] 	lookupStabilitySig:mean 	0.79127833014354
scalar Network.dyn_peer[322] 	lookupHopsSig:mean 	15.25
scalar Network.dyn_peer[323] 	lookupTimeSig:mean 	1.3583333333333
scalar Network.dyn_peer[323] 	lookupStabilitySig:mean 	0.81026361851643
scalar Network.dyn_peer[323] 	lookupHopsSig:mean 	12.666666666667
scalar Network.dyn_peer[324] 	lookupTimeSig:mean 	1.75
scalar Network.dyn_peer[324] 	lookupStabilitySig:mean 	0.48587500676513
scalar Network.dyn_peer[324] 	lookupHopsSig:mean 	16.75
scalar Network.dyn_peer[325] 	lookupTimeSig:mean 	1.375
scalar Network.dyn_peer[325] 	lookupStabilitySig:mean 	0.75419864058495
scalar Network.dyn_peer[325] 	lookupHopsSig:mean 	13
scalar Network.dyn_peer[326] 	lookupTimeSig:mean 	1.4555555555556
scalar Network.dyn_peer[326] 	lookupStabilitySig:mean 	0.85768589129051
scalar Network.dyn_peer[326] 	lookupHopsSig:mean 	13.666666666667
scalar Network.dyn_peer[327] 	lookupTimeSig:mean 	1.2666666666667
scalar Network.dyn_peer[327] 	lookupStabilitySig:mean 	0.79483760986477
scalar Network.dyn_peer[327] 	lookupHopsSig:mean 	11.833333333333
scalar Network.dyn_peer[328] 	lookupTimeSig:mean 	1.0375
scalar Network.dyn_peer[328] 	lookupStabilitySig:mean 	0.89130460016895
scalar Network.dyn_peer[328] 	lookupHopsSig:mean 	9.5
scalar Network.dyn_peer[329] 	lookupTimeSig:mean 	1.2
scalar Network.dyn_peer[329] 	lookupStabilitySig:mean 	0.65911179035902
scalar Network.dyn_peer[329] 	lookupHopsSig:mean 	11.142857142857
scalar Network.dyn_peer[330] 	lookupTimeSig:mean 	1.1333333333333
scalar Network.dyn_peer[330] 	lookupStabilitySig:mean 	0.24650996675094
scalar Network.dyn_peer[330] 	lookupHopsSig:mean 	10.666666666667
scalar Network.dyn_peer[331] 	lookupTimeSig:mean 	1.4714285714286
scalar Network.dyn_peer[331] 	lookupStabilitySig:mean 	0.63922703665282
scalar Network.dyn_peer[331] 	lookupHopsSig:mean 	13.857142857143
scalar Network.dyn_peer[332] 	lookupTimeSig:mean 	1.7428571428571
scalar Network.dyn_peer[332] 	lookupStabilitySig:mean 	0.93716031632253
scalar Network.dyn_peer[332] 	lookupHopsSig:mean 	16.571428571429
scalar Network.dyn_peer[333] 	lookupTimeSig:mean 	1.1636363636364
scalar Network.dyn_peer[333] 	lookupStabilitySig:mean 	0.87758723616769
scalar Network.dyn_peer[333] 	lookupHopsSig:mean 	10.727272727273
scalar Network.dyn_peer[334] 	lookupTimeSig:mean 	1.725
scalar Network.dyn_peer[334] 	lookupStabilitySig:mean 	0.75588736310601
scalar Network.dyn_peer[334] 	lookupHopsSig:mean 	16.5
scalar Network.dyn_peer[335] 	lookupTimeSig:mean 	0.8
scalar Network.dyn_peer[335] 	lookupStabilitySig:mean 	-0.15000000596046
scalar Network.dyn_peer[335] 	lookupHopsSig:mean 	7.5
scalar Network.dyn_peer[336] 	lookupTimeSig:mean 	1.1285714285714
scalar Network.dyn_peer[336] 	lookupStabilitySig:mean 	0.81560504729194
scalar Network.dyn_peer[336] 	lookupHopsSig:mean 	10.428571428571
scalar Network.dyn_peer[337] 	lookupTimeSig:mean 	1.125
scalar Network.dyn_peer[337] 	lookupStabilitySig:mean 	0.47846639063209
scalar Network.dyn_peer[337] 	lookupHopsSig:mean 	10.5
scalar Network.dyn_peer[338] 	lookupTimeSig:mean 	1.78
scalar Network.dyn_peer[338] 	lookupStabilitySig:mean 	0.8823947314173
scalar Network.dyn_peer[338] 	lookupHopsSig:mean 	17
scalar Network.dyn_peer[339] 	lookupTimeSig:mean 	1.5444444444444
scalar Network.dyn_peer[339] 	lookupStabilitySig:mean 	0.94322141818702
scalar Network.dyn_peer[339] 	lookupHopsSig:mean 	14.555555555556
scalar Network.dyn_peer[340] 	lookupTimeSig:mean 	0.9
scalar Network.dyn_peer[340] 	lookupStabilitySig:mean 	0.18423552066088
scalar Network.dyn_peer[340] 	lookupHopsSig:mean 	8.3333333333333
scalar Network.dyn_peer[341] 	lookupTimeSig:mean 	1.9333333333333
scalar Network.dyn_peer[341] 	lookupStabilitySig:mean 	0.16880341867606
scalar Network.dyn_peer[341] 	lookupHopsSig:mean 	18.666666666667
scalar Network.dyn_peer[342] 	lookupTimeSig:mean 	1.2230769230769
scalar Network.dyn_peer[342] 	lookupStabilitySig:mean 	0.88790325125536
scalar Network.dyn_peer[342] 	lookupHopsSig:mean 	11.307692307692
scalar Network.dyn_peer[343] 	lookupTimeSig:mean 	0.9
scalar Network.dyn_peer[343] 	lookupStabilitySig:mean 	0.67916031479836
scalar Network.dyn_peer[343] 	lookupHopsSig:mean 	8.2
scalar Network.dyn_peer[344] 	lookupTimeSig:mean 	2.35
scalar Network.dyn_peer[344] 	lookupStabilitySig:mean 	0.7366440538317
scalar Network.dyn_peer[344] 	lookupHopsSig:mean 	22.75
scalar Network.dyn_peer[345] 	lookupTimeSig:mean 	3.25
scalar Network.dyn_peer[345] 	lookupStabilitySig:mean 	-0.022222198545933
scalar Network.dyn_peer[345] 	lookupHopsSig:mean 	32
scalar Network.dyn_peer[346] 	lookupTimeSig:mean 	2
scalar Network.dyn_peer[346] 	lookupStabilitySig:mean 	0.74455918868383
scalar Network.dyn_peer[346] 	lookupHopsSig:mean 	19.333333333333
scalar Network.dyn_peer[347] 	lookupTimeSig:mean 	1.6166666666667
scalar Network.dyn_peer[347] 	lookupStabilitySig:mean 	0.9114152766997
scalar Network.dyn_peer[347] 	lookupHopsSig:mean 	15.333333333333
scalar Network.dyn_peer[348] 	lookupTimeSig:mean 	1.75
scalar Network.dyn_peer[348] 	lookupStabilitySig:mean 	0.5714285671711
scalar Network.dyn_peer[348] 	lookupHopsSig:mean 	17
scalar Network.dyn_peer[349] 	lookupTimeSig:mean 	1.2222222222222
scalar Network.dyn_peer[349] 	lookupStabilitySig:mean 	0.71609263825748
scalar Network.dyn_peer[349] 	lookupHopsSig:mean 	11.333333333333
scalar Network.dyn_peer[350] 	lookupTimeSig:mean 	0.84
scalar Network.dyn_peer[350] 	lookupStabilitySig:mean 	0.7611744441092
scalar Network.dyn_peer[350] 	lookupHopsSig:mean 	7.6
scalar Network.dyn_peer[351] 	lookupTimeSig:mean 	1.325
scalar Network.dyn_peer[351] 	lookupStabilitySig:mean 	0.39278714824468
scalar Network.dyn_peer[351] 	lookupHopsSig:mean 	12.5
scalar Network.dyn_peer[352] 	lookupTimeSig:mean 	1.1428571428571
scalar Network.dyn_peer[352] 	lookupStabilitySig:mean 	0.84122882118183
scalar Network.dyn_peer[352] 	lookupHopsSig:mean 	10.571428571429
scalar Network.dyn_peer[353] 	lookupTimeSig:mean 	1.2857142857143
scalar Network.dyn_peer[353] 	lookupStabilitySig:mean 	0.79040259249242
scalar Network.dyn_peer[353] 	lookupHopsSig:mean 	12
scalar Network.dyn_peer[354] 	lookupTimeSig:mean 	1.1857142857143
scalar Network.dyn_peer[354] 	lookupStabilitySig:mean 	0.74523656682244
scalar Network.dyn_peer[354] 	lookupHopsSig:mean 	11
scalar Network.dyn_peer[355] 	lookupTimeSig:mean 	1.7
scalar Network.dyn_peer[355] 	lookupStabilitySig:mean 	0.89537017568946
scalar Network.dyn_peer[355] 	lookupHopsSig:mean 	16.2
scalar Network.dyn_peer[356] 	lookupTimeSig:mean 	2.5
scalar Network.dyn_peer[356] 	lookupStabilitySig:mean 	0.57290304017564
scalar Network.dyn_peer[356] 	lookupHopsSig:mean 	24.333333333333
scalar Network.dyn_peer[357] 	lookupTimeSig:mean 	1.3
scalar Network.dyn_peer[357] 	lookupStabilitySig:mean 	0.49111845828593
scalar Network.dyn_peer[357] 	lookupHopsSig:mean 	12.2
scalar Network.dyn_peer[358] 	lookupTimeSig:mean 	1.0666666666667
scalar Network.dyn_peer[358] 	lookupStabilitySig:mean 	0.89544352601903
scalar Network.dyn_peer[358] 	lookupHopsSig:mean 	9.75
scalar Network.dyn_peer[359] 	lookupTimeSig:mean 	1.0428571428571
scalar Network.dyn_peer[359] 	lookupStabilitySig:mean 	0.85402273652809
scalar Network.dyn_peer[359] 	lookupHopsSig:mean 	9.5714285714286
scalar Network.dyn_peer[360] 	lookupTimeSig:mean 	1.6142857142857
scalar Network.dyn_peer[360] 	lookupStabilitySig:mean 	0.86961851109351
scalar Network.dyn_peer[360] 	lookupHopsSig:mean 	15.285714285714
scalar Network.dyn_peer[361] 	lookupTimeSig:mean 	1.4666666666667
scalar Network.dyn_peer[361] 	lookupStabilitySig:mean 	0.52072070538998
scalar Network.dyn_peer[361] 	lookupHopsSig:mean 	14
scalar Network.dyn_peer[362] 	lookupTimeSig:mean 	1.175
scalar Network.dyn_peer[362] 	lookupStabilitySig:mean 	0.69442473724484
scalar Network.dyn_peer[362] 	lookupHopsSig:mean 	11
scalar Network.dyn_peer[363] 	lookupTimeSig:mean 	0.575
scalar Network.dyn_peer[363] 	lookupStabilitySig:mean 	0.41838047839701
scalar Network.dyn_peer[363] 	lookupHopsSig:mean 	5
scalar Network.dyn_peer[364] 	lookupTimeSig:mean 	1.27
scalar Network.dyn_peer[364] 	lookupStabilitySig:mean 	0.75476302113384
scalar Network.dyn_peer[364] 	lookupHopsSig:mean 	11.8
scalar Network.dyn_peer[365] 	lookupTimeSig:mean 	1.1909090909091
scalar Network.dyn_peer[365] 	lookupStabilitySig:mean 	0.78075406869704
scalar Network.dyn_peer[365] 	lookupHopsSig:mean 	11
scalar Network.dyn_peer[366] 	lookupTimeSig:mean 	1.9333333333333
scalar Network.dyn_peer[366] 	lookupStabilitySig:mean 	0.72003991777698
scalar Network.dyn_peer[366] 	lookupHopsSig:mean 	18.666666666667
scalar Network.dyn_peer[367] 	lookupTimeSig:mean 	1.16
scalar Network.dyn_peer[367] 	lookupStabilitySig:mean 	0.83799501396716
scalar Network.dyn_peer[367] 	lookupHopsSig:mean 	10.8
scalar Network.dyn_peer[368] 	lookupTimeSig:mean 	1.4222222222222
scalar Network.dyn_peer[368] 	lookupStabilitySig:mean 	0.88811160427415
scalar Network.dyn_peer[368] 	lookupHopsSig:mean 	13.333333333333
scalar Network.dyn_peer[369] 	lookupTimeSig:mean 	1.36
scalar Network.dyn_peer[369] 	lookupStabilitySig:mean 	0.58649579957128
scalar Network.dyn_peer[369] 	lookupHopsSig:mean 	12.8
scalar Network.dyn_peer[370] 	lookupTimeSig:mean 	2.05
scalar Network.dyn_peer[370] 	lookupStabilitySig:mean 	-0.15789473056793
scalar Network.dyn_peer[370] 	lookupHopsSig:mean 	20
scalar Network.dyn_peer[371] 	lookupTimeSig:mean 	1.0777777777778
scalar Network.dyn_peer[371] 	lookupStabilitySig:mean 	0.89493608335033
scalar Network.dyn_peer[371] 	lookupHopsSig:mean 	9.8888888888889
scalar Network.dyn_peer[372] 	lookupTimeSig:mean 	1.0222222222222
scalar Network.dyn_peer[372] 	lookupStabilitySig:mean 	0.73409590215629
scalar Network.dyn_peer[372] 	lookupHopsSig:mean 	9.3333333333333
scalar Network.dyn_peer[373] 	lookupTimeSig:mean 	1.78
scalar Network.dyn_peer[373] 	lookupStabilitySig:mean 	0.85684262141585
scalar Network.dyn_peer[373] 	lookupHopsSig:mean 	17
scalar Network.dyn_peer[374] 	lookupTimeSig:mean 	1.2833333333333
scalar Network.dyn_peer[374] 	lookupStabilitySig:mean 	0.75517768847446
scalar Network.dyn_peer[374] 	lookupHopsSig:mean 	12
scalar Network.dyn_peer[375] 	lookupTimeSig:mean 	1.9285714285714
scalar Network.dyn_peer[375] 	lookupStabilitySig:mean 	0.90746267831751
scalar Network.dyn_peer[375] 	lookupHopsSig:mean 	18.428571428571
scalar Network.dyn_peer[376] 	lookupTimeSig:mean 	2.525
scalar Network.dyn_peer[376] 	lookupStabilitySig:mean 	0.50335902906954
scalar Network.dyn_peer[376] 	lookupHopsSig:mean 	24.5
scalar Network.dyn_peer[377] 	lookupTimeSig:mean 	1.1
scalar Network.dyn_peer[377] 	lookupStabilitySig:mean 	0.49999999254942
scalar Network.dyn_peer[377] 	lookupHopsSig:mean 	10.5
scalar Network.dyn_peer[378] 	lookupTimeSig:mean 	1.25
scalar Network.dyn_peer[378] 	lookupStabilitySig:mean 	0.6724429698661
scalar Network.dyn_peer[378] 	lookupHopsSig:mean 	11.75
scalar Network.dyn_peer[379] 	lookupTimeSig:mean 	1.2166666666667
scalar Network.dyn_peer[379] 	lookupStabilitySig:mean 	0.56856506007413
scalar Network.dyn_peer[379] 	lookupHopsSig:mean 	11.333333333333
scalar Network.dyn_peer[380] 	lookupTimeSig:mean 	1.275
scalar Network.dyn_peer[380] 	lookupStabilitySig:mean 	0.73100284487009
scalar Network.dyn_peer[380] 	lookupHopsSig:mean 	12
scalar Network.dyn_peer[381] 	lookupTimeSig:mean 	1.46
scalar Network.dyn_peer[381] 	lookupStabilitySig:mean 	0.89537677941844
scalar Network.dyn_peer[381] 	lookupHopsSig:mean 	13.7
scalar Network.dyn_peer[382] 	lookupTimeSig:mean 	1.775
scalar Network.dyn_peer[382] 	lookupStabilitySig:mean 	0.35104882717133
scalar Network.dyn_peer[382] 	lookupHopsSig:mean 	17
scalar Network.dyn_peer[383] 	lookupTimeSig:mean 	0.69090909090909
scalar Network.dyn_peer[383] 	lookupStabilitySig:mean 	0.88520021757788
scalar Network.dyn_peer[383] 	lookupHopsSig:mean 	6
scalar Network.dyn_peer[384] 	lookupTimeSig:mean 	1.6
scalar Network.dyn_peer[384] 	lookupStabilitySig:mean 	0.76183786522597
scalar Network.dyn_peer[384] 	lookupHopsSig:mean 	15.166666666667
scalar Network.dyn_peer[385] 	lookupTimeSig:mean 	1.1166666666667
scalar Network.dyn_peer[385] 	lookupStabilitySig:mean 	0.55748805652062
scalar Network.dyn_peer[385] 	lookupHopsSig:mean 	10.333333333333
scalar Network.dyn_peer[386] 	lookupTimeSig:mean 	1.25
scalar Network.dyn_peer[386] 	lookupStabilitySig:mean 	0.7789723565802
scalar Network.dyn_peer[386] 	lookupHopsSig:mean 	11.75
scalar Network.dyn_peer[387] 	lookupTimeSig:mean 	1.4142857142857
scalar Network.dyn_peer[387] 	lookupStabilitySig:mean 	0.86383875113513
scalar Network.dyn_peer[387] 	lookupHopsSig:mean 	13.285714285714
scalar Network.dyn_peer[388] 	lookupTimeSig:mean 	1.46875
scalar Network.dyn_peer[388] 	lookupStabilitySig:mean 	0.93240643790341
scalar Network.dyn_peer[388] 	lookupHopsSig:mean 	13.75
scalar Network.dyn_peer[389] 	lookupTimeSig:mean 	2.5666666666667
scalar Network.dyn_peer[389] 	lookupStabilitySig:mean 	0.75015017017722
scalar Network.dyn_peer[389] 	lookupHopsSig:mean 	25
scalar Network.dyn_peer[390] 	lookupTimeSig:mean 	1.7166666666667
scalar Network.dyn_peer[390] 	lookupStabilitySig:mean 	0.67248562164605
scalar Network.dyn_peer[390] 	lookupHopsSig:mean 	16.333333333333
scalar Network.dyn_peer[391] 	lookupTimeSig:mean 	2.1
scalar Network.dyn_peer[391] 	lookupStabilitySig:mean 	0.35497310291976
scalar Network.dyn_peer[391] 	lookupHopsSig:mean 	20.25
scalar Network.dyn_peer[392] 	lookupTimeSig:mean 	1.35
scalar Network.dyn_peer[392] 	lookupStabilitySig:mean 	0.32619047909975
scalar Network.dyn_peer[392] 	lookupHopsSig:mean 	13
scalar Network.dyn_peer[393] 	lookupTimeSig:mean 	1.4333333333333
scalar Network.dyn_peer[393] 	lookupStabilitySig:mean 	0.8890151085539
scalar Network.dyn_peer[393] 	lookupHopsSig:mean 	13.444444444444
scalar Network.dyn_peer[394] 	lookupTimeSig:mean 	0.975
scalar Network.dyn_peer[394] 	lookupStabilitySig:mean 	0.87017897605741
scalar Network.dyn_peer[394] 	lookupHopsSig:mean 	8.8333333333333
scalar Network.dyn_peer[395] 	lookupTimeSig:mean 	1.5
scalar Network.dyn_peer[395] 	lookupStabilitySig:mean 	0.94996907582713
scalar Network.dyn_peer[395] 	lookupHopsSig:mean 	14.111111111111
scalar Network.dyn_peer[396] 	lookupTimeSig:mean 	1.7
scalar Network.dyn_peer[396] 	lookupStabilitySig:mean 	0.20642287532489
scalar Network.dyn_peer[396] 	lookupHopsSig:mean 	16.333333333333
scalar Network.dyn_peer[397] 	lookupTimeSig:mean 	1.32
scalar Network.dyn_peer[397] 	lookupStabilitySig:mean 	0.9493790340377
scalar Network.dyn_peer[397] 	lookupHopsSig:mean 	12.3
scalar Network.dyn_peer[398] 	lookupTimeSig:mean 	2.4
scalar Network.dyn_peer[398] 	lookupStabilitySig:mean 	0.33059360831976
scalar Network.dyn_peer[398] 	lookupHopsSig:mean 	23.5
scalar Network.dyn_peer[399] 	lookupTimeSig:mean 	1.275
scalar Network.dyn_peer[399] 	lookupStabilitySig:mean 	0.48102615843527
scalar Network.dyn_peer[399] 	lookupHopsSig:mean 	12
scalar Network.dyn_peer[400] 	lookupTimeSig:mean 	1.8
scalar Network.dyn_peer[400] 	lookupStabilitySig:mean 	0.73143521075447
scalar Network.dyn_peer[400] 	lookupHopsSig:mean 	17.333333333333
scalar Network.dyn_peer[401] 	lookupTimeSig:mean 	1.2444444444444
scalar Network.dyn_peer[401] 	lookupStabilitySig:mean 	0.930210246808
scalar Network.dyn_peer[401] 	lookupHopsSig:mean 	11.555555555556
scalar Network.dyn_peer[402] 	lookupTimeSig:mean 	1.1
scalar Network.dyn_peer[402] 	lookupStabilitySig:mean 	0.41316776350141
scalar Network.dyn_peer[402] 	lookupHopsSig:mean 	10.25
scalar Network.dyn_peer[403] 	lookupTimeSig:mean 	1.2444444444444
scalar Network.dyn_peer[403] 	lookupStabilitySig:mean 	0.92177175523506
scalar Network.dyn_peer[403] 	lookupHopsSig:mean 	11.555555555556
scalar Network.dyn_peer[404] 	lookupTimeSig:mean 	1.3
scalar Network.dyn_peer[404] 	lookupStabilitySig:mean 	0.59658360481262
scalar Network.dyn_peer[404] 	lookupHopsSig:mean 	12.25
scalar Network.dyn_peer[405] 	lookupTimeSig:mean 	1.2
scalar Network.dyn_peer[405] 	lookupStabilitySig:mean 	0.80524283501187
scalar Network.dyn_peer[405] 	lookupHopsSig:mean 	11.142857142857
scalar Network.dyn_peer[406] 	lookupTimeSig:mean 	1.5625
scalar Network.dyn_peer[406] 	lookupStabilitySig:mean 	0.93620803346857
scalar Network.dyn_peer[406] 	lookupHopsSig:mean 	14.75
scalar Network.dyn_peer[407] 	lookupTimeSig:mean 	1.9
scalar Network.dyn_peer[407] 	lookupStabilitySig:mean 	0.63341384381056
scalar Network.dyn_peer[407] 	lookupHopsSig:mean 	18.25
scalar Network.dyn_peer[408] 	lookupTimeSig:mean 	0.91
scalar Network.dyn_peer[408] 	lookupStabilitySig:mean 	0.76804209752008
scalar Network.dyn_peer[408] 	lookupHopsSig:mean 	8.2
scalar Network.dyn_peer[409] 	lookupTimeSig:mean 	1.25
scalar Network.dyn_peer[409] 	lookupStabilitySig:mean 	0.37187498807907
scalar Network.dyn_peer[409] 	lookupHopsSig:mean 	12
scalar Network.dyn_peer[410] 	lookupTimeSig:mean 	1.2777777777778
scalar Network.dyn_peer[410] 	lookupStabilitySig:mean 	0.81427079915173
scalar Network.dyn_peer[410] 	lookupHopsSig:mean 	11.888888888889
scalar Network.dyn_peer[411] 	lookupTimeSig:mean 	1.6888888888889
scalar Network.dyn_peer[411] 	lookupStabilitySig:mean 	0.89385205269274
scalar Network.dyn_peer[411] 	lookupHopsSig:mean 	16
scalar Network.dyn_peer[412] 	lookupTimeSig:mean 	1.2583333333333
scalar Network.dyn_peer[412] 	lookupStabilitySig:mean 	0.89949177329739
scalar Network.dyn_peer[412] 	lookupHopsSig:mean 	11.666666666667
scalar Network.dyn_peer[413] 	lookupTimeSig:mean 	1.9333333333333
scalar Network.dyn_peer[413] 	lookupStabilitySig:mean 	0.24575808644295
scalar Network.dyn_peer[413] 	lookupHopsSig:mean 	18.666666666667
scalar Network.dyn_peer[414] 	lookupTimeSig:mean 	1.7
scalar Network.dyn_peer[414] 	lookupStabilitySig:mean 	0.65973824076355
scalar Network.dyn_peer[414] 	lookupHopsSig:mean 	16.25
scalar Network.dyn_peer[415] 	lookupTimeSig:mean 	2.4333333333333
scalar Network.dyn_peer[415] 	lookupStabilitySig:mean 	0.92854358799135
scalar Network.dyn_peer[415] 	lookupHopsSig:mean 	23.5
scalar Network.dyn_peer[416] 	lookupTimeSig:mean 	1.4
scalar Network.dyn_peer[416] 	lookupStabilitySig:mean 	0.66178287317355
scalar Network.dyn_peer[416] 	lookupHopsSig:mean 	13.333333333333
scalar Network.dyn_peer[417] 	lookupTimeSig:mean 	1.9
scalar Network.dyn_peer[417] 	lookupStabilitySig:mean 	0.58906590690215
scalar Network.dyn_peer[417] 	lookupHopsSig:mean 	18.333333333333
scalar Network.dyn_peer[418] 	lookupTimeSig:mean 	1.3333333333333
scalar Network.dyn_peer[418] 	lookupStabilitySig:mean 	0.94166019388164
scalar Network.dyn_peer[418] 	lookupHopsSig:mean 	12.444444444444
scalar Network.dyn_peer[419] 	lookupTimeSig:mean 	1.4
scalar Network.dyn_peer[419] 	lookupStabilitySig:mean 	0.89512629035328
scalar Network.dyn_peer[419] 	lookupHopsSig:mean 	13.142857142857
scalar Network.dyn_peer[420] 	lookupTimeSig:mean 	1.6
[...]
scalar Network.dyn_peer[883] 	lookupTimeSig:mean 	-nan
scalar Network.dyn_peer[883] 	lookupStabilitySig:mean 	-nan
scalar Network.dyn_peer[883] 	lookupHopsSig:mean 	-nan
scalar Network.dyn_peer[884] 	lookupTimeSig:mean 	-nan
scalar Network.dyn_peer[884] 	lookupStabilitySig:mean 	-nan
scalar Network.dyn_peer[884] 	lookupHopsSig:mean 	-nan
scalar Network.dyn_peer[885] 	lookupTimeSig:mean 	-nan
scalar Network.dyn_peer[885] 	lookupStabilitySig:mean 	-nan
scalar Network.dyn_peer[885] 	lookupHopsSig:mean 	-nan
scalar Network.dyn_peer[886] 	lookupTimeSig:mean 	-nan
scalar Network.dyn_peer[886] 	lookupStabilitySig:mean 	-nan
scalar Network.dyn_peer[886] 	lookupHopsSig:mean 	-nan
scalar Network.dyn_peer[887] 	lookupTimeSig:mean 	-nan
scalar Network.dyn_peer[887] 	lookupStabilitySig:mean 	-nan
scalar Network.dyn_peer[887] 	lookupHopsSig:mean 	-nan
scalar Network.dyn_peer[888] 	lookupTimeSig:mean 	-nan
scalar Network.dyn_peer[888] 	lookupStabilitySig:mean 	-nan
scalar Network.dyn_peer[888] 	lookupHopsSig:mean 	-nan
scalar Network.dyn_peer[889] 	lookupTimeSig:mean 	-nan
scalar Network.dyn_peer[889] 	lookupStabilitySig:mean 	-nan
scalar Network.dyn_peer[889] 	lookupHopsSig:mean 	-nan
scalar Network.dyn_peer[890] 	lookupTimeSig:mean 	-nan
scalar Network.dyn_peer[890] 	lookupStabilitySig:mean 	-nan
scalar Network.dyn_peer[890] 	lookupHopsSig:mean 	-nan
scalar Network.dyn_peer[891] 	lookupTimeSig:mean 	-nan
scalar Network.dyn_peer[891] 	lookupStabilitySig:mean 	-nan
scalar Network.dyn_peer[891] 	lookupHopsSig:mean 	-nan
scalar Network.dyn_peer[892] 	lookupTimeSig:mean 	-nan
scalar Network.dyn_peer[892] 	lookupStabilitySig:mean 	-nan
scalar Network.dyn_peer[892] 	lookupHopsSig:mean 	-nan
scalar Network.dyn_peer[893] 	lookupTimeSig:mean 	-nan
scalar Network.dyn_peer[893] 	lookupStabilitySig:mean 	-nan
scalar Network.dyn_peer[893] 	lookupHopsSig:mean 	-nan
scalar Network.dyn_peer[894] 	lookupTimeSig:mean 	-nan
scalar Network.dyn_peer[894] 	lookupStabilitySig:mean 	-nan
scalar Network.dyn_peer[894] 	lookupHopsSig:mean 	-nan
scalar Network.dyn_peer[895] 	lookupTimeSig:mean 	-nan
scalar Network.dyn_peer[895] 	lookupStabilitySig:mean 	-nan
scalar Network.dyn_peer[895] 	lookupHopsSig:mean 	-nan
scalar Network.dyn_peer[896] 	lookupTimeSig:mean 	-nan
scalar Network.dyn_peer[896] 	lookupStabilitySig:mean 	-nan
scalar Network.dyn_peer[896] 	lookupHopsSig:mean 	-nan
scalar Network.dyn_peer[897] 	lookupTimeSig:mean 	-nan
scalar Network.dyn_peer[897] 	lookupStabilitySig:mean 	-nan
scalar Network.dyn_peer[897] 	lookupHopsSig:mean 	-nan
scalar Network.dyn_peer[898] 	lookupTimeSig:mean 	-nan
scalar Network.dyn_peer[898] 	lookupStabilitySig:mean 	-nan
scalar Network.dyn_peer[898] 	lookupHopsSig:mean 	-nan
scalar Network.dyn_peer[899] 	lookupTimeSig:mean 	-nan
scalar Network.dyn_peer[899] 	lookupStabilitySig:mean 	-nan
scalar Network.dyn_peer[899] 	lookupHopsSig:mean 	-nan
scalar Network.dyn_peer[900] 	lookupTimeSig:mean 	-nan
scalar Network.dyn_peer[900] 	lookupStabilitySig:mean 	-nan
scalar Network.dyn_peer[900] 	lookupHopsSig:mean 	-nan
scalar Network.dyn_peer[901] 	lookupTimeSig:mean 	-nan
scalar Network.dyn_peer[901] 	lookupStabilitySig:mean 	-nan
scalar Network.dyn_peer[901] 	lookupHopsSig:mean 	-nan
scalar Network.dyn_peer[902] 	lookupTimeSig:mean 	-nan
scalar Network.dyn_peer[902] 	lookupStabilitySig:mean 	-nan
scalar Network.dyn_peer[902] 	lookupHopsSig:mean 	-nan
scalar Network.dyn_peer[903] 	lookupTimeSig:mean 	-nan
scalar Network.dyn_peer[903] 	lookupStabilitySig:mean 	-nan
scalar Network.dyn_peer[903] 	lookupHopsSig:mean 	-nan
scalar Network.dyn_peer[904] 	lookupTimeSig:mean 	-nan
scalar Network.dyn_peer[904] 	lookupStabilitySig:mean 	-nan
scalar Network.dyn_peer[904] 	lookupHopsSig:mean 	-nan
scalar Network.dyn_peer[905] 	lookupTimeSig:mean 	-nan
scalar Network.dyn_peer[905] 	lookupStabilitySig:mean 	-nan
scalar Network.dyn_peer[905] 	lookupHopsSig:mean 	-nan
scalar Network.dyn_peer[906] 	lookupTimeSig:mean 	-nan
scalar Network.dyn_peer[906] 	lookupStabilitySig:mean 	-nan
scalar Network.dyn_peer[906] 	lookupHopsSig:mean 	-nan
scalar Network.dyn_peer[907] 	lookupTimeSig:mean 	-nan
scalar Network.dyn_peer[907] 	lookupStabilitySig:mean 	-nan
scalar Network.dyn_peer[907] 	lookupHopsSig:mean 	-nan
scalar Network.dyn_peer[908] 	lookupTimeSig:mean 	-nan
scalar Network.dyn_peer[908] 	lookupStabilitySig:mean 	-nan
scalar Network.dyn_peer[908] 	lookupHopsSig:mean 	-nan
scalar Network.dyn_peer[909] 	lookupTimeSig:mean 	-nan
scalar Network.dyn_peer[909] 	lookupStabilitySig:mean 	-nan
scalar Network.dyn_peer[909] 	lookupHopsSig:mean 	-nan
scalar Network.dyn_peer[910] 	lookupTimeSig:mean 	-nan
scalar Network.dyn_peer[910] 	lookupStabilitySig:mean 	-nan
scalar Network.dyn_peer[910] 	lookupHopsSig:mean 	-nan
scalar Network.dyn_peer[911] 	lookupTimeSig:mean 	-nan
scalar Network.dyn_peer[911] 	lookupStabilitySig:mean 	-nan
scalar Network.dyn_peer[911] 	lookupHopsSig:mean 	-nan
scalar Network.dyn_peer[912] 	lookupTimeSig:mean 	-nan
scalar Network.dyn_peer[912] 	lookupStabilitySig:mean 	-nan
scalar Network.dyn_peer[912] 	lookupHopsSig:mean 	-nan
scalar Network.dyn_peer[913] 	lookupTimeSig:mean 	-nan
scalar Network.dyn_peer[913] 	lookupStabilitySig:mean 	-nan
scalar Network.dyn_peer[913] 	lookupHopsSig:mean 	-nan
scalar Network.dyn_peer[914] 	lookupTimeSig:mean 	-nan
scalar Network.dyn_peer[914] 	lookupStabilitySig:mean 	-nan
scalar Network.dyn_peer[914] 	lookupHopsSig:mean 	-nan
scalar Network.dyn_peer[915] 	lookupTimeSig:mean 	-nan
scalar Network.dyn_peer[915] 	lookupStabilitySig:mean 	-nan
scalar Network.dyn_peer[915] 	lookupHopsSig:mean 	-nan
scalar Network.dyn_peer[916] 	lookupTimeSig:mean 	-nan
scalar Network.dyn_peer[916] 	lookupStabilitySig:mean 	-nan
scalar Network.dyn_peer[916] 	lookupHopsSig:mean 	-nan
scalar Network.dyn_peer[917] 	lookupTimeSig:mean 	-nan
scalar Network.dyn_peer[917] 	lookupStabilitySig:mean 	-nan
scalar Network.dyn_peer[917] 	lookupHopsSig:mean 	-nan
scalar Network.dyn_peer[918] 	lookupTimeSig:mean 	-nan
scalar Network.dyn_peer[918] 	lookupStabilitySig:mean 	-nan
scalar Network.dyn_peer[918] 	lookupHopsSig:mean 	-nan
scalar Network.dyn_peer[919] 	lookupTimeSig:mean 	-nan
scalar Network.dyn_peer[919] 	lookupStabilitySig:mean 	-nan
scalar Network.dyn_peer[919] 	lookupHopsSig:mean 	-nan
scalar Network.dyn_peer[920] 	lookupTimeSig:mean 	-nan
scalar Network.dyn_peer[920] 	lookupStabilitySig:mean 	-nan
scalar Network.dyn_peer[920] 	lookupHopsSig:mean 	-nan
scalar Network.dyn_peer[921] 	lookupTimeSig:mean 	-nan
scalar Network.dyn_peer[921] 	lookupStabilitySig:mean 	-nan
scalar Network.dyn_peer[921] 	lookupHopsSig:mean 	-nan
scalar Network.dyn_peer[922] 	lookupTimeSig:mean 	-nan
scalar Network.dyn_peer[922] 	lookupStabilitySig:mean 	-nan
scalar Network.dyn_peer[922] 	lookupHopsSig:mean 	-nan
scalar Network.dyn_peer[923] 	lookupTimeSig:mean 	-nan
scalar Network.dyn_peer[923] 	lookupStabilitySig:mean 	-nan
scalar Network.dyn_peer[923] 	lookupHopsSig:mean 	-nan
scalar Network.dyn_peer[924] 	lookupTimeSig:mean 	-nan
scalar Network.dyn_peer[924] 	lookupStabilitySig:mean 	-nan
scalar Network.dyn_peer[924] 	lookupHopsSig:mean 	-nan
scalar Network.dyn_peer[925] 	lookupTimeSig:mean 	-nan
scalar Network.dyn_peer[925] 	lookupStabilitySig:mean 	-nan
scalar Network.dyn_peer[925] 	lookupHopsSig:mean 	-nan
scalar Network.dyn_peer[926] 	lookupTimeSig:mean 	-nan
scalar Network.dyn_peer[926] 	lookupStabilitySig:mean 	-nan
scalar Network.dyn_peer[926] 	lookupHopsSig:mean 	-nan
scalar Network.dyn_peer[927] 	lookupTimeSig:mean 	-nan
scalar Network.dyn_peer[927] 	lookupStabilitySig:mean 	-nan
scalar Network.dyn_peer[927] 	lookupHopsSig:mean 	-nan
scalar Network.dyn_peer[928] 	lookupTimeSig:mean 	-nan
scalar Network.dyn_peer[928] 	lookupStabilitySig:mean 	-nan
scalar Network.dyn_peer[928] 	lookupHopsSig:mean 	-nan
scalar Network.dyn_peer[929] 	lookupTimeSig:mean 	-nan
scalar Network.dyn_peer[929] 	lookupStabilitySig:mean 	-nan
scalar Network.dyn_peer[929] 	lookupHopsSig:mean 	-nan
scalar Network.dyn_peer[930] 	lookupTimeSig:mean 	-nan
scalar Network.dyn_peer[930] 	lookupStabilitySig:mean 	-nan
scalar Network.dyn_peer[930] 	lookupHopsSig:mean 	-nan
scalar Network.dyn_peer[931] 	lookupTimeSig:mean 	-nan
scalar Network.dyn_peer[931] 	lookupStabilitySig:mean 	-nan
scalar Network.dyn_peer[931] 	lookupHopsSig:mean 	-nan
scalar Network.dyn_peer[932] 	lookupTimeSig:mean 	-nan
scalar Network.dyn_peer[932] 	lookupStabilitySig:mean 	-nan
scalar Network.dyn_peer[932] 	lookupHopsSig:mean 	-nan
scalar Network.dyn_peer[933] 	lookupTimeSig:mean 	-nan
scalar Network.dyn_peer[933] 	lookupStabilitySig:mean 	-nan
scalar Network.dyn_peer[933] 	lookupHopsSig:mean 	-nan
scalar Network.dyn_peer[934] 	lookupTimeSig:mean 	-nan
scalar Network.dyn_peer[934] 	lookupStabilitySig:mean 	-nan
scalar Network.dyn_peer[934] 	lookupHopsSig:mean 	-nan
scalar Network.dyn_peer[935] 	lookupTimeSig:mean 	-nan
scalar Network.dyn_peer[935] 	lookupStabilitySig:mean 	-nan
scalar Network.dyn_peer[935] 	lookupHopsSig:mean 	-nan
scalar Network.dyn_peer[936] 	lookupTimeSig:mean 	-nan
scalar Network.dyn_peer[936] 	lookupStabilitySig:mean 	-nan
scalar Network.dyn_peer[936] 	lookupHopsSig:mean 	-nan
scalar Network.dyn_peer[937] 	lookupTimeSig:mean 	-nan
scalar Network.dyn_peer[937] 	lookupStabilitySig:mean 	-nan
scalar Network.dyn_peer[937] 	lookupHopsSig:mean 	-nan
scalar Network.dyn_peer[938] 	lookupTimeSig:mean 	-nan
scalar Network.dyn_peer[938] 	lookupStabilitySig:mean 	-nan
scalar Network.dyn_peer[938] 	lookupHopsSig:mean 	-nan
scalar Network.dyn_peer[939] 	lookupTimeSig:mean 	-nan
scalar Network.dyn_peer[939] 	lookupStabilitySig:mean 	-nan
scalar Network.dyn_peer[939] 	lookupHopsSig:mean 	-nan
scalar Network.dyn_peer[940] 	lookupTimeSig:mean 	-nan
scalar Network.dyn_peer[940] 	lookupStabilitySig:mean 	-nan
scalar Network.dyn_peer[940] 	lookupHopsSig:mean 	-nan
scalar Network.dyn_peer[941] 	lookupTimeSig:mean 	-nan
scalar Network.dyn_peer[941] 	lookupStabilitySig:mean 	-nan
scalar Network.dyn_peer[941] 	lookupHopsSig:mean 	-nan
scalar Network.dyn_peer[942] 	lookupTimeSig:mean 	-nan
scalar Network.dyn_peer[942] 	lookupStabilitySig:mean 	-nan
scalar Network.dyn_peer[942] 	lookupHopsSig:mean 	-nan
scalar Network.dyn_peer[943] 	lookupTimeSig:mean 	-nan
scalar Network.dyn_peer[943] 	lookupStabilitySig:mean 	-nan
scalar Network.dyn_peer[943] 	lookupHopsSig:mean 	-nan
scalar Network.dyn_peer[944] 	lookupTimeSig:mean 	-nan
scalar Network.dyn_peer[944] 	lookupStabilitySig:mean 	-nan
scalar Network.dyn_peer[944] 	lookupHopsSig:mean 	-nan
scalar Network.dyn_peer[945] 	lookupTimeSig:mean 	-nan
scalar Network.dyn_peer[945] 	lookupStabilitySig:mean 	-nan
scalar Network.dyn_peer[945] 	lookupHopsSig:mean 	-nan
scalar Network.dyn_peer[946] 	lookupTimeSig:mean 	-nan
scalar Network.dyn_peer[946] 	lookupStabilitySig:mean 	-nan
scalar Network.dyn_peer[946] 	lookupHopsSig:mean 	-nan
scalar Network.dyn_peer[947] 	lookupTimeSig:mean 	-nan
scalar Network.dyn_peer[947] 	lookupStabilitySig:mean 	-nan
scalar Network.dyn_peer[947] 	lookupHopsSig:mean 	-nan
scalar Network.dyn_peer[948] 	lookupTimeSig:mean 	-nan
scalar Network.dyn_peer[948] 	lookupStabilitySig:mean 	-nan
scalar Network.dyn_peer[948] 	lookupHopsSig:mean 	-nan
scalar Network.dyn_peer[949] 	lookupTimeSig:mean 	-nan
scalar Network.dyn_peer[949] 	lookupStabilitySig:mean 	-nan
scalar Network.dyn_peer[949] 	lookupHopsSig:mean 	-nan
scalar Network.dyn_peer[950] 	lookupTimeSig:mean 	-nan
scalar Network.dyn_peer[950] 	lookupStabilitySig:mean 	-nan
scalar Network.dyn_peer[950] 	lookupHopsSig:mean 	-nan
scalar Network.dyn_peer[951] 	lookupTimeSig:mean 	-nan
scalar Network.dyn_peer[951] 	lookupStabilitySig:mean 	-nan
scalar Network.dyn_peer[951] 	lookupHopsSig:mean 	-nan
scalar Network.dyn_peer[952] 	lookupTimeSig:mean 	-nan
scalar Network.dyn_peer[952] 	lookupStabilitySig:mean 	-nan
scalar Network.dyn_peer[952] 	lookupHopsSig:mean 	-nan
scalar Network.dyn_peer[953] 	lookupTimeSig:mean 	-nan
scalar Network.dyn_peer[953] 	lookupStabilitySig:mean 	-nan
scalar Network.dyn_peer[953] 	lookupHopsSig:mean 	-nan
scalar Network.dyn_peer[954] 	lookupTimeSig:mean 	-nan
scalar Network.dyn_peer[954] 	lookupStabilitySig:mean 	-nan
scalar Network.dyn_peer[954] 	lookupHopsSig:mean 	-nan
scalar Network.dyn_peer[955] 	lookupTimeSig:mean 	-nan
scalar Network.dyn_peer[955] 	lookupStabilitySig:mean 	-nan
scalar Network.dyn_peer[955] 	lookupHopsSig:mean 	-nan
scalar Network.dyn_peer[956] 	lookupTimeSig:mean 	-nan
scalar Network.dyn_peer[956] 	lookupStabilitySig:mean 	-nan
scalar Network.dyn_peer[956] 	lookupHopsSig:mean 	-nan
scalar Network.dyn_peer[957] 	lookupTimeSig:mean 	-nan
scalar Network.dyn_peer[957] 	lookupStabilitySig:mean 	-nan
scalar Network.dyn_peer[957] 	lookupHopsSig:mean 	-nan
scalar Network.dyn_peer[958] 	lookupTimeSig:mean 	-nan
scalar Network.dyn_peer[958] 	lookupStabilitySig:mean 	-nan
scalar Network.dyn_peer[958] 	lookupHopsSig:mean 	-nan
scalar Network.dyn_peer[959] 	lookupTimeSig:mean 	-nan
scalar Network.dyn_peer[959] 	lookupStabilitySig:mean 	-nan
scalar Network.dyn_peer[959] 	lookupHopsSig:mean 	-nan
scalar Network.dyn_peer[960] 	lookupTimeSig:mean 	-nan
scalar Network.dyn_peer[960] 	lookupStabilitySig:mean 	-nan
scalar Network.dyn_peer[960] 	lookupHopsSig:mean 	-nan
scalar Network.dyn_peer[961] 	lookupTimeSig:mean 	-nan
scalar Network.dyn_peer[961] 	lookupStabilitySig:mean 	-nan
scalar Network.dyn_peer[961] 	lookupHopsSig:mean 	-nan
scalar Network.dyn_peer[962] 	lookupTimeSig:mean 	-nan
scalar Network.dyn_peer[962] 	lookupStabilitySig:mean 	-nan
scalar Network.dyn_peer[962] 	lookupHopsSig:mean 	-nan
scalar Network.dyn_peer[963] 	lookupTimeSig:mean 	-nan
scalar Network.dyn_peer[963] 	lookupStabilitySig:mean 	-nan
scalar Network.dyn_peer[963] 	lookupHopsSig:mean 	-nan
scalar Network.dyn_peer[964] 	lookupTimeSig:mean 	-nan
scalar Network.dyn_peer[964] 	lookupStabilitySig:mean 	-nan
scalar Network.dyn_peer[964] 	lookupHopsSig:mean 	-nan
scalar Network.dyn_peer[965] 	lookupTimeSig:mean 	-nan
scalar Network.dyn_peer[965] 	lookupStabilitySig:mean 	-nan
scalar Network.dyn_peer[965] 	lookupHopsSig:mean 	-nan
scalar Network.dyn_peer[966] 	lookupTimeSig:mean 	-nan
scalar Network.dyn_peer[966] 	lookupStabilitySig:mean 	-nan
scalar Network.dyn_peer[966] 	lookupHopsSig:mean 	-nan
scalar Network.dyn_peer[967] 	lookupTimeSig:mean 	-nan
scalar Network.dyn_peer[967] 	lookupStabilitySig:mean 	-nan
scalar Network.dyn_peer[967] 	lookupHopsSig:mean 	-nan
scalar Network.dyn_peer[968] 	lookupTimeSig:mean 	-nan
scalar Network.dyn_peer[968] 	lookupStabilitySig:mean 	-nan
scalar Network.dyn_peer[968] 	lookupHopsSig:mean 	-nan
scalar Network.dyn_peer[969] 	lookupTimeSig:mean 	-nan
scalar Network.dyn_peer[969] 	lookupStabilitySig:mean 	-nan
scalar Network.dyn_peer[969] 	lookupHopsSig:mean 	-nan
scalar Network.dyn_peer[970] 	lookupTimeSig:mean 	-nan
scalar Network.dyn_peer[970] 	lookupStabilitySig:mean 	-nan
scalar Network.dyn_peer[970] 	lookupHopsSig:mean 	-nan
scalar Network.dyn_peer[971] 	lookupTimeSig:mean 	-nan
scalar Network.dyn_peer[971] 	lookupStabilitySig:mean 	-nan
scalar Network.dyn_peer[971] 	lookupHopsSig:mean 	-nan
scalar Network.dyn_peer[972] 	lookupTimeSig:mean 	-nan
scalar Network.dyn_peer[972] 	lookupStabilitySig:mean 	-nan
scalar Network.dyn_peer[972] 	lookupHopsSig:mean 	-nan
scalar Network.dyn_peer[973] 	lookupTimeSig:mean 	-nan
scalar Network.dyn_peer[973] 	lookupStabilitySig:mean 	-nan
scalar Network.dyn_peer[973] 	lookupHopsSig:mean 	-nan
scalar Network.dyn_peer[974] 	lookupTimeSig:mean 	-nan
scalar Network.dyn_peer[974] 	lookupStabilitySig:mean 	-nan
scalar Network.dyn_peer[974] 	lookupHopsSig:mean 	-nan
scalar Network.dyn_peer[975] 	lookupTimeSig:mean 	-nan
scalar Network.dyn_peer[975] 	lookupStabilitySig:mean 	-nan
scalar Network.dyn_peer[975] 	lookupHopsSig:mean 	-nan
scalar Network.dyn_peer[976] 	lookupTimeSig:mean 	-nan
scalar Network.dyn_peer[976] 	lookupStabilitySig:mean 	-nan
scalar Network.dyn_peer[976] 	lookupHopsSig:mean 	-nan
scalar Network.dyn_peer[977] 	lookupTimeSig:mean 	-nan
scalar Network.dyn_peer[977] 	lookupStabilitySig:mean 	-nan
scalar Network.dyn_peer[977] 	lookupHopsSig:mean 	-nan
scalar Network.dyn_peer[978] 	lookupTimeSig:mean 	-nan
scalar Network.dyn_peer[978] 	lookupStabilitySig:mean 	-nan
scalar Network.dyn_peer[978] 	lookupHopsSig:mean 	-nan
scalar Network.dyn_peer[979] 	lookupTimeSig:mean 	-nan
scalar Network.dyn_peer[979] 	lookupStabilitySig:mean 	-nan
scalar Network.dyn_peer[979] 	lookupHopsSig:mean 	-nan
scalar Network.dyn_peer[980] 	lookupTimeSig:mean 	-nan
scalar Network.dyn_peer[980] 	lookupStabilitySig:mean 	-nan
scalar Network.dyn_peer[980] 	lookupHopsSig:mean 	-nan
scalar Network.dyn_peer[981] 	lookupTimeSig:mean 	-nan
scalar Network.dyn_peer[981] 	lookupStabilitySig:mean 	-nan
scalar Network.dyn_peer[981] 	lookupHopsSig:mean 	-nan
scalar Network.dyn_peer[982] 	lookupTimeSig:mean 	-nan
scalar Network.dyn_peer[982] 	lookupStabilitySig:mean 	-nan
scalar Network.dyn_peer[982] 	lookupHopsSig:mean 	-nan
scalar Network.dyn_peer[983] 	lookupTimeSig:mean 	-nan
scalar Network.dyn_peer[983] 	lookupStabilitySig:mean 	-nan
scalar Network.dyn_peer[983] 	lookupHopsSig:mean 	-nan
scalar Network.dyn_peer[984] 	lookupTimeSig:mean 	-nan
scalar Network.dyn_peer[984] 	lookupStabilitySig:mean 	-nan
scalar Network.dyn_peer[984] 	lookupHopsSig:mean 	-nan
scalar Network.dyn_peer[985] 	lookupTimeSig:mean 	-nan
scalar Network.dyn_peer[985] 	lookupStabilitySig:mean 	-nan
scalar Network.dyn_peer[985] 	lookupHopsSig:mean 	-nan
scalar Network.dyn_peer[986] 	lookupTimeSig:mean 	-nan
scalar Network.dyn_peer[986] 	lookupStabilitySig:mean 	-nan
scalar Network.dyn_peer[986] 	lookupHopsSig:mean 	-nan
scalar Network.dyn_peer[987] 	lookupTimeSig:mean 	-nan
scalar Network.dyn_peer[987] 	lookupStabilitySig:mean 	-nan
scalar Network.dyn_peer[987] 	lookupHopsSig:mean 	-nan
scalar Network.dyn_peer[988] 	lookupTimeSig:mean 	-nan
scalar Network.dyn_peer[988] 	lookupStabilitySig:mean 	-nan
scalar Network.dyn_peer[988] 	lookupHopsSig:mean 	-nan
scalar Network.dyn_peer[989] 	lookupTimeSig:mean 	-nan
scalar Network.dyn_peer[989] 	lookupStabilitySig:mean 	-nan
scalar Network.dyn_peer[989] 	lookupHopsSig:mean 	-nan
scalar Network.dyn_peer[990] 	lookupTimeSig:mean 	-nan
scalar Network.dyn_peer[990] 	lookupStabilitySig:mean 	-nan
scalar Network.dyn_peer[990] 	lookupHopsSig:mean 	-nan
scalar Network.dyn_peer[991] 	lookupTimeSig:mean 	-nan
scalar Network.dyn_peer[991] 	lookupStabilitySig:mean 	-nan
scalar Network.dyn_peer[991] 	lookupHopsSig:mean 	-nan
scalar Network.dyn_peer[992] 	lookupTimeSig:mean 	-nan
scalar Network.dyn_peer[992] 	lookupStabilitySig:mean 	-nan
scalar Network.dyn_peer[992] 	lookupHopsSig:mean 	-nan
scalar Network.dyn_peer[993] 	lookupTimeSig:mean 	-nan
scalar Network.dyn_peer[993] 	lookupStabilitySig:mean 	-nan
scalar Network.dyn_peer[993] 	lookupHopsSig:mean 	-nan
scalar Network.dyn_peer[994] 	lookupTimeSig:mean 	-nan
scalar Network.dyn_peer[994] 	lookupStabilitySig:mean 	-nan
scalar Network.dyn_peer[994] 	lookupHopsSig:mean 	-nan
scalar Network.dyn_peer[995] 	lookupTimeSig:mean 	-nan
scalar Network.dyn_peer[995] 	lookupStabilitySig:mean 	-nan
scalar Network.dyn_peer[995] 	lookupHopsSig:mean 	-nan
scalar Network.dyn_peer[996] 	lookupTimeSig:mean 	-nan
scalar Network.dyn_peer[996] 	lookupStabilitySig:mean 	-nan
scalar Network.dyn_peer[996] 	lookupHopsSig:mean 	-nan
scalar Network.dyn_peer[997] 	lookupTimeSig:mean 	-nan
scalar Network.dyn_peer[997] 	lookupStabilitySig:mean 	-nan
scalar Network.dyn_peer[997] 	lookupHopsSig:mean 	-nan
scalar Network.dyn_peer[998] 	lookupTimeSig:mean 	-nan
scalar Network.dyn_peer[998] 	lookupStabilitySig:mean 	-nan
scalar Network.dyn_peer[998] 	lookupHopsSig:mean 	-nan
scalar Network.dyn_peer[999] 	lookupTimeSig:mean 	-nan
scalar Network.dyn_peer[999] 	lookupStabilitySig:mean 	-nan
scalar Network.dyn_peer[999] 	lookupHopsSig:mean 	-nan
scalar Network.churner 	inGoingSizeSig:mean 	249.00199600798
