version 2
run Stability2-315-20130526-00:55:02-26640
attr configname Stability2
attr datetime 20130526-00:55:02
attr experiment Stability2
attr inifile omnetpp.ini
attr iterationvars $0=1000
attr iterationvars2 "$0=1000, $repetition=15"
attr measurement $0=1000
attr network Network
attr processid 26640
attr repetition 15
attr replication #15
attr resultdir results
attr runnumber 315
attr seedset 315

scalar Network.dyn_peer[0] 	lookupTimeSig:mean 	3.3
scalar Network.dyn_peer[0] 	lookupStabilitySig:mean 	0.71652542892843
scalar Network.dyn_peer[0] 	lookupHopsSig:mean 	32.25
scalar Network.dyn_peer[1] 	lookupTimeSig:mean 	2.1
scalar Network.dyn_peer[1] 	lookupStabilitySig:mean 	0.81741341515444
scalar Network.dyn_peer[1] 	lookupHopsSig:mean 	20.1
scalar Network.dyn_peer[2] 	lookupTimeSig:mean 	1.1166666666667
scalar Network.dyn_peer[2] 	lookupStabilitySig:mean 	0.51060481059055
scalar Network.dyn_peer[2] 	lookupHopsSig:mean 	10.333333333333
scalar Network.dyn_peer[3] 	lookupTimeSig:mean 	1.1
scalar Network.dyn_peer[3] 	lookupStabilitySig:mean 	0.30327379703522
scalar Network.dyn_peer[3] 	lookupHopsSig:mean 	10.25
scalar Network.dyn_peer[4] 	lookupTimeSig:mean 	2.6333333333333
scalar Network.dyn_peer[4] 	lookupStabilitySig:mean 	0.12441139916579
scalar Network.dyn_peer[4] 	lookupHopsSig:mean 	25.666666666667
scalar Network.dyn_peer[5] 	lookupTimeSig:mean 	1.6
scalar Network.dyn_peer[5] 	lookupStabilitySig:mean 	0.018428156773249
scalar Network.dyn_peer[5] 	lookupHopsSig:mean 	15.333333333333
scalar Network.dyn_peer[6] 	lookupTimeSig:mean 	1.525
scalar Network.dyn_peer[6] 	lookupStabilitySig:mean 	0.35932871326804
scalar Network.dyn_peer[6] 	lookupHopsSig:mean 	14.5
scalar Network.dyn_peer[7] 	lookupTimeSig:mean 	2.0333333333333
scalar Network.dyn_peer[7] 	lookupStabilitySig:mean 	0.71602038744216
scalar Network.dyn_peer[7] 	lookupHopsSig:mean 	19.5
scalar Network.dyn_peer[8] 	lookupTimeSig:mean 	1.5333333333333
scalar Network.dyn_peer[8] 	lookupStabilitySig:mean 	0.40352736786008
scalar Network.dyn_peer[8] 	lookupHopsSig:mean 	14.5
scalar Network.dyn_peer[9] 	lookupTimeSig:mean 	1.9636363636364
scalar Network.dyn_peer[9] 	lookupStabilitySig:mean 	0.82679649709131
scalar Network.dyn_peer[9] 	lookupHopsSig:mean 	18.727272727273
scalar Network.dyn_peer[10] 	lookupTimeSig:mean 	1.325
scalar Network.dyn_peer[10] 	lookupStabilitySig:mean 	0.28247156180441
scalar Network.dyn_peer[10] 	lookupHopsSig:mean 	12.5
scalar Network.dyn_peer[11] 	lookupTimeSig:mean 	2.5
scalar Network.dyn_peer[11] 	lookupStabilitySig:mean 	0.33121612668037
scalar Network.dyn_peer[11] 	lookupHopsSig:mean 	24.333333333333
scalar Network.dyn_peer[12] 	lookupTimeSig:mean 	2.0333333333333
scalar Network.dyn_peer[12] 	lookupStabilitySig:mean 	0.79490941452483
scalar Network.dyn_peer[12] 	lookupHopsSig:mean 	19.5
scalar Network.dyn_peer[13] 	lookupTimeSig:mean 	2.64
scalar Network.dyn_peer[13] 	lookupStabilitySig:mean 	0.75860760435462
scalar Network.dyn_peer[13] 	lookupHopsSig:mean 	25.6
scalar Network.dyn_peer[14] 	lookupTimeSig:mean 	1.84
scalar Network.dyn_peer[14] 	lookupStabilitySig:mean 	0.57370760142803
scalar Network.dyn_peer[14] 	lookupHopsSig:mean 	17.6
scalar Network.dyn_peer[15] 	lookupTimeSig:mean 	1.9833333333333
scalar Network.dyn_peer[15] 	lookupStabilitySig:mean 	0.85241622943431
scalar Network.dyn_peer[15] 	lookupHopsSig:mean 	19
scalar Network.dyn_peer[16] 	lookupTimeSig:mean 	2.4
scalar Network.dyn_peer[16] 	lookupStabilitySig:mean 	0.52136753002803
scalar Network.dyn_peer[16] 	lookupHopsSig:mean 	23.333333333333
scalar Network.dyn_peer[17] 	lookupTimeSig:mean 	1.73
scalar Network.dyn_peer[17] 	lookupStabilitySig:mean 	0.92155089853331
scalar Network.dyn_peer[17] 	lookupHopsSig:mean 	16.4
scalar Network.dyn_peer[18] 	lookupTimeSig:mean 	1.92
scalar Network.dyn_peer[18] 	lookupStabilitySig:mean 	0.29117752090096
scalar Network.dyn_peer[18] 	lookupHopsSig:mean 	18.4
scalar Network.dyn_peer[19] 	lookupTimeSig:mean 	1.9545454545455
scalar Network.dyn_peer[19] 	lookupStabilitySig:mean 	0.88051497479054
scalar Network.dyn_peer[19] 	lookupHopsSig:mean 	18.636363636364
scalar Network.dyn_peer[20] 	lookupTimeSig:mean 	2.425
scalar Network.dyn_peer[20] 	lookupStabilitySig:mean 	0.42201061826199
scalar Network.dyn_peer[20] 	lookupHopsSig:mean 	23.5
scalar Network.dyn_peer[21] 	lookupTimeSig:mean 	2.475
scalar Network.dyn_peer[21] 	lookupStabilitySig:mean 	0.71440007351339
scalar Network.dyn_peer[21] 	lookupHopsSig:mean 	24
scalar Network.dyn_peer[22] 	lookupTimeSig:mean 	1.9
scalar Network.dyn_peer[22] 	lookupStabilitySig:mean 	0.40928534418344
scalar Network.dyn_peer[22] 	lookupHopsSig:mean 	18.2
scalar Network.dyn_peer[23] 	lookupTimeSig:mean 	1.98
scalar Network.dyn_peer[23] 	lookupStabilitySig:mean 	0.69795297384262
scalar Network.dyn_peer[23] 	lookupHopsSig:mean 	19
scalar Network.dyn_peer[24] 	lookupTimeSig:mean 	2.175
scalar Network.dyn_peer[24] 	lookupStabilitySig:mean 	0.64605725742877
scalar Network.dyn_peer[24] 	lookupHopsSig:mean 	20.875
scalar Network.dyn_peer[25] 	lookupTimeSig:mean 	2.5
scalar Network.dyn_peer[25] 	lookupStabilitySig:mean 	0.568485609442
scalar Network.dyn_peer[25] 	lookupHopsSig:mean 	24.2
scalar Network.dyn_peer[26] 	lookupTimeSig:mean 	1.8
scalar Network.dyn_peer[26] 	lookupStabilitySig:mean 	0.38433152623475
scalar Network.dyn_peer[26] 	lookupHopsSig:mean 	17.25
scalar Network.dyn_peer[27] 	lookupTimeSig:mean 	1.22
scalar Network.dyn_peer[27] 	lookupStabilitySig:mean 	0.37112846076488
scalar Network.dyn_peer[27] 	lookupHopsSig:mean 	11.4
scalar Network.dyn_peer[28] 	lookupTimeSig:mean 	2.325
scalar Network.dyn_peer[28] 	lookupStabilitySig:mean 	0.65361046418548
scalar Network.dyn_peer[28] 	lookupHopsSig:mean 	22.5
scalar Network.dyn_peer[29] 	lookupTimeSig:mean 	2.7
scalar Network.dyn_peer[29] 	lookupStabilitySig:mean 	0.32207864150405
scalar Network.dyn_peer[29] 	lookupHopsSig:mean 	26.25
scalar Network.dyn_peer[30] 	lookupTimeSig:mean 	1.34
scalar Network.dyn_peer[30] 	lookupStabilitySig:mean 	0.46138119800016
scalar Network.dyn_peer[30] 	lookupHopsSig:mean 	12.6
scalar Network.dyn_peer[31] 	lookupTimeSig:mean 	0.775
scalar Network.dyn_peer[31] 	lookupStabilitySig:mean 	0.36947462707758
scalar Network.dyn_peer[31] 	lookupHopsSig:mean 	7
scalar Network.dyn_peer[32] 	lookupTimeSig:mean 	1.4
scalar Network.dyn_peer[32] 	lookupStabilitySig:mean 	0.32576686143875
scalar Network.dyn_peer[32] 	lookupHopsSig:mean 	13.2
scalar Network.dyn_peer[33] 	lookupTimeSig:mean 	2.1285714285714
scalar Network.dyn_peer[33] 	lookupStabilitySig:mean 	0.90331618168524
scalar Network.dyn_peer[33] 	lookupHopsSig:mean 	20.428571428571
scalar Network.dyn_peer[34] 	lookupTimeSig:mean 	1.7571428571429
scalar Network.dyn_peer[34] 	lookupStabilitySig:mean 	0.90197709428945
scalar Network.dyn_peer[34] 	lookupHopsSig:mean 	16.714285714286
scalar Network.dyn_peer[35] 	lookupTimeSig:mean 	1.6
scalar Network.dyn_peer[35] 	lookupStabilitySig:mean 	0.89313811859624
scalar Network.dyn_peer[35] 	lookupHopsSig:mean 	15.090909090909
scalar Network.dyn_peer[36] 	lookupTimeSig:mean 	2.0333333333333
scalar Network.dyn_peer[36] 	lookupStabilitySig:mean 	0.65754792590936
scalar Network.dyn_peer[36] 	lookupHopsSig:mean 	19.666666666667
scalar Network.dyn_peer[37] 	lookupTimeSig:mean 	3.2333333333333
scalar Network.dyn_peer[37] 	lookupStabilitySig:mean 	-0.019662494460742
scalar Network.dyn_peer[37] 	lookupHopsSig:mean 	31.666666666667
scalar Network.dyn_peer[38] 	lookupTimeSig:mean 	3.4333333333333
scalar Network.dyn_peer[38] 	lookupStabilitySig:mean 	0.80878916010261
scalar Network.dyn_peer[38] 	lookupHopsSig:mean 	33.666666666667
scalar Network.dyn_peer[39] 	lookupTimeSig:mean 	1.6666666666667
scalar Network.dyn_peer[39] 	lookupStabilitySig:mean 	0.76870246580802
scalar Network.dyn_peer[39] 	lookupHopsSig:mean 	15.733333333333
scalar Network.dyn_peer[40] 	lookupTimeSig:mean 	0.92
scalar Network.dyn_peer[40] 	lookupStabilitySig:mean 	0.3152356415987
scalar Network.dyn_peer[40] 	lookupHopsSig:mean 	8.4
scalar Network.dyn_peer[41] 	lookupTimeSig:mean 	2.3142857142857
scalar Network.dyn_peer[41] 	lookupStabilitySig:mean 	0.61788635088929
scalar Network.dyn_peer[41] 	lookupHopsSig:mean 	22.285714285714
scalar Network.dyn_peer[42] 	lookupTimeSig:mean 	1.7666666666667
scalar Network.dyn_peer[42] 	lookupStabilitySig:mean 	0.78522625224044
scalar Network.dyn_peer[42] 	lookupHopsSig:mean 	16.833333333333
scalar Network.dyn_peer[43] 	lookupTimeSig:mean 	1.875
scalar Network.dyn_peer[43] 	lookupStabilitySig:mean 	0.46963421814144
scalar Network.dyn_peer[43] 	lookupHopsSig:mean 	18
scalar Network.dyn_peer[44] 	lookupTimeSig:mean 	2.1
scalar Network.dyn_peer[44] 	lookupStabilitySig:mean 	0.68368115592748
scalar Network.dyn_peer[44] 	lookupHopsSig:mean 	20.2
scalar Network.dyn_peer[45] 	lookupTimeSig:mean 	3.3
scalar Network.dyn_peer[45] 	lookupStabilitySig:mean 	0.73068783432245
scalar Network.dyn_peer[45] 	lookupHopsSig:mean 	32.5
scalar Network.dyn_peer[46] 	lookupTimeSig:mean 	2.1
scalar Network.dyn_peer[46] 	lookupStabilitySig:mean 	0.55740541405976
scalar Network.dyn_peer[46] 	lookupHopsSig:mean 	20.25
scalar Network.dyn_peer[47] 	lookupTimeSig:mean 	2.45
scalar Network.dyn_peer[47] 	lookupStabilitySig:mean 	0.90665236266796
scalar Network.dyn_peer[47] 	lookupHopsSig:mean 	23.625
scalar Network.dyn_peer[48] 	lookupTimeSig:mean 	1.575
scalar Network.dyn_peer[48] 	lookupStabilitySig:mean 	0.57573620928451
scalar Network.dyn_peer[48] 	lookupHopsSig:mean 	14.875
scalar Network.dyn_peer[49] 	lookupTimeSig:mean 	2.85
scalar Network.dyn_peer[49] 	lookupStabilitySig:mean 	0.60985915362835
scalar Network.dyn_peer[49] 	lookupHopsSig:mean 	28
scalar Network.dyn_peer[50] 	lookupTimeSig:mean 	1.3
scalar Network.dyn_peer[50] 	lookupStabilitySig:mean 	0.44724842533469
scalar Network.dyn_peer[50] 	lookupHopsSig:mean 	12.25
scalar Network.dyn_peer[51] 	lookupTimeSig:mean 	2.9833333333333
scalar Network.dyn_peer[51] 	lookupStabilitySig:mean 	0.90931717539206
scalar Network.dyn_peer[51] 	lookupHopsSig:mean 	29
scalar Network.dyn_peer[52] 	lookupTimeSig:mean 	1.64
scalar Network.dyn_peer[52] 	lookupStabilitySig:mean 	0.83151830583811
scalar Network.dyn_peer[52] 	lookupHopsSig:mean 	15.6
scalar Network.dyn_peer[53] 	lookupTimeSig:mean 	3.05
scalar Network.dyn_peer[53] 	lookupStabilitySig:mean 	0.40304969996214
scalar Network.dyn_peer[53] 	lookupHopsSig:mean 	30
scalar Network.dyn_peer[54] 	lookupTimeSig:mean 	2.6666666666667
scalar Network.dyn_peer[54] 	lookupStabilitySig:mean 	0.63956776447594
scalar Network.dyn_peer[54] 	lookupHopsSig:mean 	25.833333333333
scalar Network.dyn_peer[55] 	lookupTimeSig:mean 	1.1875
scalar Network.dyn_peer[55] 	lookupStabilitySig:mean 	0.83296918962151
scalar Network.dyn_peer[55] 	lookupHopsSig:mean 	11
scalar Network.dyn_peer[56] 	lookupTimeSig:mean 	2.3285714285714
scalar Network.dyn_peer[56] 	lookupStabilitySig:mean 	0.6548995758806
scalar Network.dyn_peer[56] 	lookupHopsSig:mean 	22.428571428571
scalar Network.dyn_peer[57] 	lookupTimeSig:mean 	2.34
scalar Network.dyn_peer[57] 	lookupStabilitySig:mean 	0.8396125216037
scalar Network.dyn_peer[57] 	lookupHopsSig:mean 	22.6
scalar Network.dyn_peer[58] 	lookupTimeSig:mean 	3.32
scalar Network.dyn_peer[58] 	lookupStabilitySig:mean 	0.31465973109007
scalar Network.dyn_peer[58] 	lookupHopsSig:mean 	32.4
scalar Network.dyn_peer[59] 	lookupTimeSig:mean 	2.4
scalar Network.dyn_peer[59] 	lookupStabilitySig:mean 	0.30833331495523
scalar Network.dyn_peer[59] 	lookupHopsSig:mean 	23.25
scalar Network.dyn_peer[60] 	lookupTimeSig:mean 	2.18
scalar Network.dyn_peer[60] 	lookupStabilitySig:mean 	0.50779907722026
scalar Network.dyn_peer[60] 	lookupHopsSig:mean 	21
scalar Network.dyn_peer[61] 	lookupTimeSig:mean 	1.75
scalar Network.dyn_peer[61] 	lookupStabilitySig:mean 	0.17223015800118
scalar Network.dyn_peer[61] 	lookupHopsSig:mean 	16.75
scalar Network.dyn_peer[62] 	lookupTimeSig:mean 	2.1
scalar Network.dyn_peer[62] 	lookupStabilitySig:mean 	0.4728049566038
scalar Network.dyn_peer[62] 	lookupHopsSig:mean 	20.166666666667
scalar Network.dyn_peer[63] 	lookupTimeSig:mean 	1.6315789473684
scalar Network.dyn_peer[63] 	lookupStabilitySig:mean 	0.88283657880598
scalar Network.dyn_peer[63] 	lookupHopsSig:mean 	15.368421052632
scalar Network.dyn_peer[64] 	lookupTimeSig:mean 	2.4285714285714
scalar Network.dyn_peer[64] 	lookupStabilitySig:mean 	0.76330436074308
scalar Network.dyn_peer[64] 	lookupHopsSig:mean 	23.428571428571
scalar Network.dyn_peer[65] 	lookupTimeSig:mean 	1.8
scalar Network.dyn_peer[65] 	lookupStabilitySig:mean 	0.42850945293903
scalar Network.dyn_peer[65] 	lookupHopsSig:mean 	17.2
scalar Network.dyn_peer[66] 	lookupTimeSig:mean 	1.9909090909091
scalar Network.dyn_peer[66] 	lookupStabilitySig:mean 	0.95321738025682
scalar Network.dyn_peer[66] 	lookupHopsSig:mean 	19
scalar Network.dyn_peer[67] 	lookupTimeSig:mean 	1.05
scalar Network.dyn_peer[67] 	lookupStabilitySig:mean 	0.59296330396319
scalar Network.dyn_peer[67] 	lookupHopsSig:mean 	9.625
scalar Network.dyn_peer[68] 	lookupTimeSig:mean 	1.8
scalar Network.dyn_peer[68] 	lookupStabilitySig:mean 	0.73542263284326
scalar Network.dyn_peer[68] 	lookupHopsSig:mean 	17.2
scalar Network.dyn_peer[69] 	lookupTimeSig:mean 	2.0888888888889
scalar Network.dyn_peer[69] 	lookupStabilitySig:mean 	0.94112210151636
scalar Network.dyn_peer[69] 	lookupHopsSig:mean 	20
scalar Network.dyn_peer[70] 	lookupTimeSig:mean 	2.7
scalar Network.dyn_peer[70] 	lookupStabilitySig:mean 	0.51176821812987
scalar Network.dyn_peer[70] 	lookupHopsSig:mean 	26.2
scalar Network.dyn_peer[71] 	lookupTimeSig:mean 	1.2666666666667
scalar Network.dyn_peer[71] 	lookupStabilitySig:mean 	0.12167872985204
scalar Network.dyn_peer[71] 	lookupHopsSig:mean 	12
scalar Network.dyn_peer[72] 	lookupTimeSig:mean 	2.2
scalar Network.dyn_peer[72] 	lookupStabilitySig:mean 	0.20076754316688
scalar Network.dyn_peer[72] 	lookupHopsSig:mean 	21.25
scalar Network.dyn_peer[73] 	lookupTimeSig:mean 	2.025
scalar Network.dyn_peer[73] 	lookupStabilitySig:mean 	0.36102702841163
scalar Network.dyn_peer[73] 	lookupHopsSig:mean 	19.5
scalar Network.dyn_peer[74] 	lookupTimeSig:mean 	1.775
scalar Network.dyn_peer[74] 	lookupStabilitySig:mean 	0.47159483283758
scalar Network.dyn_peer[74] 	lookupHopsSig:mean 	17
scalar Network.dyn_peer[75] 	lookupTimeSig:mean 	1.8
scalar Network.dyn_peer[75] 	lookupStabilitySig:mean 	0.12007166941961
scalar Network.dyn_peer[75] 	lookupHopsSig:mean 	17.333333333333
scalar Network.dyn_peer[76] 	lookupTimeSig:mean 	1.4
scalar Network.dyn_peer[76] 	lookupStabilitySig:mean 	0.79572076609151
scalar Network.dyn_peer[76] 	lookupHopsSig:mean 	13.111111111111
scalar Network.dyn_peer[77] 	lookupTimeSig:mean 	1.6
scalar Network.dyn_peer[77] 	lookupStabilitySig:mean 	-0.089514618118604
scalar Network.dyn_peer[77] 	lookupHopsSig:mean 	15.333333333333
scalar Network.dyn_peer[78] 	lookupTimeSig:mean 	3.7
scalar Network.dyn_peer[78] 	lookupStabilitySig:mean 	0.80007673613727
scalar Network.dyn_peer[78] 	lookupHopsSig:mean 	36.25
scalar Network.dyn_peer[79] 	lookupTimeSig:mean 	2.225
scalar Network.dyn_peer[79] 	lookupStabilitySig:mean 	0.6484954059124
scalar Network.dyn_peer[79] 	lookupHopsSig:mean 	21.5
scalar Network.dyn_peer[80] 	lookupTimeSig:mean 	2.2
scalar Network.dyn_peer[80] 	lookupStabilitySig:mean 	0.60899261633555
scalar Network.dyn_peer[80] 	lookupHopsSig:mean 	21.333333333333
scalar Network.dyn_peer[81] 	lookupTimeSig:mean 	1.575
scalar Network.dyn_peer[81] 	lookupStabilitySig:mean 	0.35112791880965
scalar Network.dyn_peer[81] 	lookupHopsSig:mean 	15
scalar Network.dyn_peer[82] 	lookupTimeSig:mean 	1.4
scalar Network.dyn_peer[82] 	lookupStabilitySig:mean 	0.66981710679829
scalar Network.dyn_peer[82] 	lookupHopsSig:mean 	13.2
scalar Network.dyn_peer[83] 	lookupTimeSig:mean 	2.5666666666667
scalar Network.dyn_peer[83] 	lookupStabilitySig:mean 	0.26197612533967
scalar Network.dyn_peer[83] 	lookupHopsSig:mean 	25
scalar Network.dyn_peer[84] 	lookupTimeSig:mean 	2.22
scalar Network.dyn_peer[84] 	lookupStabilitySig:mean 	0.53136874139309
scalar Network.dyn_peer[84] 	lookupHopsSig:mean 	21.4
scalar Network.dyn_peer[85] 	lookupTimeSig:mean 	2.2142857142857
scalar Network.dyn_peer[85] 	lookupStabilitySig:mean 	0.83711126067543
scalar Network.dyn_peer[85] 	lookupHopsSig:mean 	21.214285714286
scalar Network.dyn_peer[86] 	lookupTimeSig:mean 	1.3
scalar Network.dyn_peer[86] 	lookupStabilitySig:mean 	0.79402500322948
scalar Network.dyn_peer[86] 	lookupHopsSig:mean 	12.076923076923
scalar Network.dyn_peer[87] 	lookupTimeSig:mean 	1.9142857142857
scalar Network.dyn_peer[87] 	lookupStabilitySig:mean 	0.81609575051282
scalar Network.dyn_peer[87] 	lookupHopsSig:mean 	18.285714285714
scalar Network.dyn_peer[88] 	lookupTimeSig:mean 	1.4285714285714
scalar Network.dyn_peer[88] 	lookupStabilitySig:mean 	0.51914121875806
scalar Network.dyn_peer[88] 	lookupHopsSig:mean 	13.428571428571
scalar Network.dyn_peer[89] 	lookupTimeSig:mean 	2.425
scalar Network.dyn_peer[89] 	lookupStabilitySig:mean 	0.46462349593639
scalar Network.dyn_peer[89] 	lookupHopsSig:mean 	23.5
scalar Network.dyn_peer[90] 	lookupTimeSig:mean 	2.525
scalar Network.dyn_peer[90] 	lookupStabilitySig:mean 	0.4638201026246
scalar Network.dyn_peer[90] 	lookupHopsSig:mean 	24.5
scalar Network.dyn_peer[91] 	lookupTimeSig:mean 	3.1
scalar Network.dyn_peer[91] 	lookupStabilitySig:mean 	0.70427398383617
scalar Network.dyn_peer[91] 	lookupHopsSig:mean 	30.5
scalar Network.dyn_peer[92] 	lookupTimeSig:mean 	1.3142857142857
scalar Network.dyn_peer[92] 	lookupStabilitySig:mean 	0.56694482905524
scalar Network.dyn_peer[92] 	lookupHopsSig:mean 	12.285714285714
scalar Network.dyn_peer[93] 	lookupTimeSig:mean 	2.7444444444444
scalar Network.dyn_peer[93] 	lookupStabilitySig:mean 	0.94558739196509
scalar Network.dyn_peer[93] 	lookupHopsSig:mean 	26.555555555556
scalar Network.dyn_peer[94] 	lookupTimeSig:mean 	1.8
scalar Network.dyn_peer[94] 	lookupStabilitySig:mean 	0.4838624248902
scalar Network.dyn_peer[94] 	lookupHopsSig:mean 	17.333333333333
scalar Network.dyn_peer[95] 	lookupTimeSig:mean 	2.2333333333333
scalar Network.dyn_peer[95] 	lookupStabilitySig:mean 	0.50872548669577
scalar Network.dyn_peer[95] 	lookupHopsSig:mean 	21.666666666667
scalar Network.dyn_peer[96] 	lookupTimeSig:mean 	1.7363636363636
scalar Network.dyn_peer[96] 	lookupStabilitySig:mean 	0.88603316562843
scalar Network.dyn_peer[96] 	lookupHopsSig:mean 	16.454545454545
scalar Network.dyn_peer[97] 	lookupTimeSig:mean 	2.48
scalar Network.dyn_peer[97] 	lookupStabilitySig:mean 	0.95955969616771
scalar Network.dyn_peer[97] 	lookupHopsSig:mean 	23.9
scalar Network.dyn_peer[98] 	lookupTimeSig:mean 	1.9272727272727
scalar Network.dyn_peer[98] 	lookupStabilitySig:mean 	0.87099783133123
scalar Network.dyn_peer[98] 	lookupHopsSig:mean 	18.363636363636
scalar Network.dyn_peer[99] 	lookupTimeSig:mean 	2.7
scalar Network.dyn_peer[99] 	lookupStabilitySig:mean 	0.72360821720213
scalar Network.dyn_peer[99] 	lookupHopsSig:mean 	26.25
scalar Network.dyn_peer[100] 	lookupTimeSig:mean 	1.7444444444444
scalar Network.dyn_peer[100] 	lookupStabilitySig:mean 	0.6449226308614
scalar Network.dyn_peer[100] 	lookupHopsSig:mean 	16.555555555556
scalar Network.dyn_peer[101] 	lookupTimeSig:mean 	1.325
scalar Network.dyn_peer[101] 	lookupStabilitySig:mean 	0.21475732699037
scalar Network.dyn_peer[101] 	lookupHopsSig:mean 	12.5
scalar Network.dyn_peer[102] 	lookupTimeSig:mean 	1.3230769230769
scalar Network.dyn_peer[102] 	lookupStabilitySig:mean 	0.78699753576746
scalar Network.dyn_peer[102] 	lookupHopsSig:mean 	12.307692307692
scalar Network.dyn_peer[103] 	lookupTimeSig:mean 	1.65
scalar Network.dyn_peer[103] 	lookupStabilitySig:mean 	0.79917744124153
scalar Network.dyn_peer[103] 	lookupHopsSig:mean 	15.666666666667
scalar Network.dyn_peer[104] 	lookupTimeSig:mean 	2.475
scalar Network.dyn_peer[104] 	lookupStabilitySig:mean 	0.8475579963997
scalar Network.dyn_peer[104] 	lookupHopsSig:mean 	24
scalar Network.dyn_peer[105] 	lookupTimeSig:mean 	1.6666666666667
scalar Network.dyn_peer[105] 	lookupStabilitySig:mean 	0.67050031510492
scalar Network.dyn_peer[105] 	lookupHopsSig:mean 	15.833333333333
scalar Network.dyn_peer[106] 	lookupTimeSig:mean 	2.1333333333333
scalar Network.dyn_peer[106] 	lookupStabilitySig:mean 	0.42995436737935
scalar Network.dyn_peer[106] 	lookupHopsSig:mean 	20.666666666667
scalar Network.dyn_peer[107] 	lookupTimeSig:mean 	2.7
scalar Network.dyn_peer[107] 	lookupStabilitySig:mean 	0.85538406421741
scalar Network.dyn_peer[107] 	lookupHopsSig:mean 	26.333333333333
scalar Network.dyn_peer[108] 	lookupTimeSig:mean 	2.2
scalar Network.dyn_peer[108] 	lookupStabilitySig:mean 	0.57156911306083
scalar Network.dyn_peer[108] 	lookupHopsSig:mean 	21.25
scalar Network.dyn_peer[109] 	lookupTimeSig:mean 	2.7
scalar Network.dyn_peer[109] 	lookupStabilitySig:mean 	0.29862078030904
scalar Network.dyn_peer[109] 	lookupHopsSig:mean 	26.333333333333
scalar Network.dyn_peer[110] 	lookupTimeSig:mean 	3.25
scalar Network.dyn_peer[110] 	lookupStabilitySig:mean 	0.62056986242533
scalar Network.dyn_peer[110] 	lookupHopsSig:mean 	31.75
scalar Network.dyn_peer[111] 	lookupTimeSig:mean 	2.0888888888889
scalar Network.dyn_peer[111] 	lookupStabilitySig:mean 	0.68891202617023
scalar Network.dyn_peer[111] 	lookupHopsSig:mean 	20
scalar Network.dyn_peer[112] 	lookupTimeSig:mean 	1.4333333333333
scalar Network.dyn_peer[112] 	lookupStabilitySig:mean 	0.22442456086477
scalar Network.dyn_peer[112] 	lookupHopsSig:mean 	13.666666666667
scalar Network.dyn_peer[113] 	lookupTimeSig:mean 	1.5285714285714
scalar Network.dyn_peer[113] 	lookupStabilitySig:mean 	0.80438288843392
scalar Network.dyn_peer[113] 	lookupHopsSig:mean 	14.357142857143
scalar Network.dyn_peer[114] 	lookupTimeSig:mean 	1.98
scalar Network.dyn_peer[114] 	lookupStabilitySig:mean 	0.75922380834818
scalar Network.dyn_peer[114] 	lookupHopsSig:mean 	19
scalar Network.dyn_peer[115] 	lookupTimeSig:mean 	1.3666666666667
scalar Network.dyn_peer[115] 	lookupStabilitySig:mean 	0.43941723803679
scalar Network.dyn_peer[115] 	lookupHopsSig:mean 	13
scalar Network.dyn_peer[116] 	lookupTimeSig:mean 	2.15
scalar Network.dyn_peer[116] 	lookupStabilitySig:mean 	0.30282468348742
scalar Network.dyn_peer[116] 	lookupHopsSig:mean 	20.75
scalar Network.dyn_peer[117] 	lookupTimeSig:mean 	1.7
scalar Network.dyn_peer[117] 	lookupStabilitySig:mean 	0.94392483253032
scalar Network.dyn_peer[117] 	lookupHopsSig:mean 	16.1
scalar Network.dyn_peer[118] 	lookupTimeSig:mean 	2.26
scalar Network.dyn_peer[118] 	lookupStabilitySig:mean 	0.47244192585349
scalar Network.dyn_peer[118] 	lookupHopsSig:mean 	21.8
scalar Network.dyn_peer[119] 	lookupTimeSig:mean 	1.4666666666667
scalar Network.dyn_peer[119] 	lookupStabilitySig:mean 	0.76282144302968
scalar Network.dyn_peer[119] 	lookupHopsSig:mean 	13.75
scalar Network.dyn_peer[120] 	lookupTimeSig:mean 	1.83
scalar Network.dyn_peer[120] 	lookupStabilitySig:mean 	0.92589301709086
scalar Network.dyn_peer[120] 	lookupHopsSig:mean 	17.4
scalar Network.dyn_peer[121] 	lookupTimeSig:mean 	1.6166666666667
scalar Network.dyn_peer[121] 	lookupStabilitySig:mean 	0.53634933956588
scalar Network.dyn_peer[121] 	lookupHopsSig:mean 	15.333333333333
scalar Network.dyn_peer[122] 	lookupTimeSig:mean 	3.15
scalar Network.dyn_peer[122] 	lookupStabilitySig:mean 	0.21621286869049
scalar Network.dyn_peer[122] 	lookupHopsSig:mean 	30.75
scalar Network.dyn_peer[123] 	lookupTimeSig:mean 	2.75
scalar Network.dyn_peer[123] 	lookupStabilitySig:mean 	0.79870741348714
scalar Network.dyn_peer[123] 	lookupHopsSig:mean 	26.75
scalar Network.dyn_peer[124] 	lookupTimeSig:mean 	3.6
scalar Network.dyn_peer[124] 	lookupStabilitySig:mean 	0.12291666865349
scalar Network.dyn_peer[124] 	lookupHopsSig:mean 	35.5
scalar Network.dyn_peer[125] 	lookupTimeSig:mean 	2.4
scalar Network.dyn_peer[125] 	lookupStabilitySig:mean 	0.78122229035944
scalar Network.dyn_peer[125] 	lookupHopsSig:mean 	23.25
scalar Network.dyn_peer[126] 	lookupTimeSig:mean 	1.5375
scalar Network.dyn_peer[126] 	lookupStabilitySig:mean 	0.79615527950227
scalar Network.dyn_peer[126] 	lookupHopsSig:mean 	14.5
scalar Network.dyn_peer[127] 	lookupTimeSig:mean 	1.5166666666667
scalar Network.dyn_peer[127] 	lookupStabilitySig:mean 	0.75508410669863
scalar Network.dyn_peer[127] 	lookupHopsSig:mean 	14.333333333333
scalar Network.dyn_peer[128] 	lookupTimeSig:mean 	2.09
scalar Network.dyn_peer[128] 	lookupStabilitySig:mean 	0.78718484742567
scalar Network.dyn_peer[128] 	lookupHopsSig:mean 	20
scalar Network.dyn_peer[129] 	lookupTimeSig:mean 	2.2333333333333
scalar Network.dyn_peer[129] 	lookupStabilitySig:mean 	0.71312843239866
scalar Network.dyn_peer[129] 	lookupHopsSig:mean 	21.5
scalar Network.dyn_peer[130] 	lookupTimeSig:mean 	1.3
scalar Network.dyn_peer[130] 	lookupStabilitySig:mean 	0.26812587166205
scalar Network.dyn_peer[130] 	lookupHopsSig:mean 	12.25
scalar Network.dyn_peer[131] 	lookupTimeSig:mean 	1.5833333333333
scalar Network.dyn_peer[131] 	lookupStabilitySig:mean 	0.55477170584102
scalar Network.dyn_peer[131] 	lookupHopsSig:mean 	15
scalar Network.dyn_peer[132] 	lookupTimeSig:mean 	1.9142857142857
scalar Network.dyn_peer[132] 	lookupStabilitySig:mean 	0.82015158102981
scalar Network.dyn_peer[132] 	lookupHopsSig:mean 	18.285714285714
scalar Network.dyn_peer[133] 	lookupTimeSig:mean 	2.88
scalar Network.dyn_peer[133] 	lookupStabilitySig:mean 	0.81376404128969
scalar Network.dyn_peer[133] 	lookupHopsSig:mean 	28
scalar Network.dyn_peer[134] 	lookupTimeSig:mean 	2
scalar Network.dyn_peer[134] 	lookupStabilitySig:mean 	0.34932562112808
scalar Network.dyn_peer[134] 	lookupHopsSig:mean 	19.2
scalar Network.dyn_peer[135] 	lookupTimeSig:mean 	1.6833333333333
scalar Network.dyn_peer[135] 	lookupStabilitySig:mean 	0.95886130883203
scalar Network.dyn_peer[135] 	lookupHopsSig:mean 	15.916666666667
scalar Network.dyn_peer[136] 	lookupTimeSig:mean 	3.3666666666667
scalar Network.dyn_peer[136] 	lookupStabilitySig:mean 	0.20747676367561
scalar Network.dyn_peer[136] 	lookupHopsSig:mean 	33
scalar Network.dyn_peer[137] 	lookupTimeSig:mean 	1.3166666666667
scalar Network.dyn_peer[137] 	lookupStabilitySig:mean 	0.71266436669976
scalar Network.dyn_peer[137] 	lookupHopsSig:mean 	12.333333333333
scalar Network.dyn_peer[138] 	lookupTimeSig:mean 	1.6333333333333
scalar Network.dyn_peer[138] 	lookupStabilitySig:mean 	0.11021037399769
scalar Network.dyn_peer[138] 	lookupHopsSig:mean 	15.666666666667
scalar Network.dyn_peer[139] 	lookupTimeSig:mean 	2.2
scalar Network.dyn_peer[139] 	lookupStabilitySig:mean 	0.16049383580685
scalar Network.dyn_peer[139] 	lookupHopsSig:mean 	21.333333333333
scalar Network.dyn_peer[140] 	lookupTimeSig:mean 	2.6
scalar Network.dyn_peer[140] 	lookupStabilitySig:mean 	0.41891892254353
scalar Network.dyn_peer[140] 	lookupHopsSig:mean 	25.5
scalar Network.dyn_peer[141] 	lookupTimeSig:mean 	1.9111111111111
scalar Network.dyn_peer[141] 	lookupStabilitySig:mean 	0.87361764980273
scalar Network.dyn_peer[141] 	lookupHopsSig:mean 	18.222222222222
scalar Network.dyn_peer[142] 	lookupTimeSig:mean 	1.8636363636364
scalar Network.dyn_peer[142] 	lookupStabilitySig:mean 	0.83373488288965
scalar Network.dyn_peer[142] 	lookupHopsSig:mean 	17.727272727273
scalar Network.dyn_peer[143] 	lookupTimeSig:mean 	1.9333333333333
scalar Network.dyn_peer[143] 	lookupStabilitySig:mean 	0.65933969182273
scalar Network.dyn_peer[143] 	lookupHopsSig:mean 	18.5
scalar Network.dyn_peer[144] 	lookupTimeSig:mean 	1.725
scalar Network.dyn_peer[144] 	lookupStabilitySig:mean 	0.19643821660429
scalar Network.dyn_peer[144] 	lookupHopsSig:mean 	16.5
scalar Network.dyn_peer[145] 	lookupTimeSig:mean 	2.0142857142857
scalar Network.dyn_peer[145] 	lookupStabilitySig:mean 	0.89891874710364
scalar Network.dyn_peer[145] 	lookupHopsSig:mean 	19.285714285714
scalar Network.dyn_peer[146] 	lookupTimeSig:mean 	1.125
scalar Network.dyn_peer[146] 	lookupStabilitySig:mean 	0.59387629153207
scalar Network.dyn_peer[146] 	lookupHopsSig:mean 	10.375
scalar Network.dyn_peer[147] 	lookupTimeSig:mean 	2.1333333333333
scalar Network.dyn_peer[147] 	lookupStabilitySig:mean 	0.23587320993344
scalar Network.dyn_peer[147] 	lookupHopsSig:mean 	20.666666666667
scalar Network.dyn_peer[148] 	lookupTimeSig:mean 	1.8142857142857
scalar Network.dyn_peer[148] 	lookupStabilitySig:mean 	0.85354635275767
scalar Network.dyn_peer[148] 	lookupHopsSig:mean 	17.214285714286
scalar Network.dyn_peer[149] 	lookupTimeSig:mean 	1.3285714285714
scalar Network.dyn_peer[149] 	lookupStabilitySig:mean 	0.7639458277928
scalar Network.dyn_peer[149] 	lookupHopsSig:mean 	12.428571428571
scalar Network.dyn_peer[150] 	lookupTimeSig:mean 	2.05
scalar Network.dyn_peer[150] 	lookupStabilitySig:mean 	0.81000873167068
scalar Network.dyn_peer[150] 	lookupHopsSig:mean 	19.75
scalar Network.dyn_peer[151] 	lookupTimeSig:mean 	1.5166666666667
scalar Network.dyn_peer[151] 	lookupStabilitySig:mean 	0.76743276277557
scalar Network.dyn_peer[151] 	lookupHopsSig:mean 	14.333333333333
scalar Network.dyn_peer[152] 	lookupTimeSig:mean 	2.0142857142857
scalar Network.dyn_peer[152] 	lookupStabilitySig:mean 	0.83139591158501
scalar Network.dyn_peer[152] 	lookupHopsSig:mean 	19.285714285714
scalar Network.dyn_peer[153] 	lookupTimeSig:mean 	2.5166666666667
scalar Network.dyn_peer[153] 	lookupStabilitySig:mean 	0.8160182988892
scalar Network.dyn_peer[153] 	lookupHopsSig:mean 	24.333333333333
scalar Network.dyn_peer[154] 	lookupTimeSig:mean 	2.425
scalar Network.dyn_peer[154] 	lookupStabilitySig:mean 	0.87770274491049
scalar Network.dyn_peer[154] 	lookupHopsSig:mean 	23.333333333333
scalar Network.dyn_peer[155] 	lookupTimeSig:mean 	2.05
scalar Network.dyn_peer[155] 	lookupStabilitySig:mean 	0.84831299446523
scalar Network.dyn_peer[155] 	lookupHopsSig:mean 	19.666666666667
scalar Network.dyn_peer[156] 	lookupTimeSig:mean 	2.09
scalar Network.dyn_peer[156] 	lookupStabilitySig:mean 	0.91953002233058
scalar Network.dyn_peer[156] 	lookupHopsSig:mean 	20
scalar Network.dyn_peer[157] 	lookupTimeSig:mean 	2.1
scalar Network.dyn_peer[157] 	lookupStabilitySig:mean 	0.80412155709096
scalar Network.dyn_peer[157] 	lookupHopsSig:mean 	20.142857142857
scalar Network.dyn_peer[158] 	lookupTimeSig:mean 	2.1818181818182
scalar Network.dyn_peer[158] 	lookupStabilitySig:mean 	0.91274708814242
scalar Network.dyn_peer[158] 	lookupHopsSig:mean 	20.909090909091
scalar Network.dyn_peer[159] 	lookupTimeSig:mean 	2.5
scalar Network.dyn_peer[159] 	lookupStabilitySig:mean 	0.76421095306675
scalar Network.dyn_peer[159] 	lookupHopsSig:mean 	24.333333333333
scalar Network.dyn_peer[160] 	lookupTimeSig:mean 	1.6
scalar Network.dyn_peer[160] 	lookupStabilitySig:mean 	0.59205762669444
scalar Network.dyn_peer[160] 	lookupHopsSig:mean 	15.2
scalar Network.dyn_peer[161] 	lookupTimeSig:mean 	2.4285714285714
scalar Network.dyn_peer[161] 	lookupStabilitySig:mean 	0.8990905153166
scalar Network.dyn_peer[161] 	lookupHopsSig:mean 	23.428571428571
scalar Network.dyn_peer[162] 	lookupTimeSig:mean 	1.7727272727273
scalar Network.dyn_peer[162] 	lookupStabilitySig:mean 	0.86576442852278
scalar Network.dyn_peer[162] 	lookupHopsSig:mean 	16.818181818182
scalar Network.dyn_peer[163] 	lookupTimeSig:mean 	4.15
scalar Network.dyn_peer[163] 	lookupStabilitySig:mean 	0.38163564354181
scalar Network.dyn_peer[163] 	lookupHopsSig:mean 	41
scalar Network.dyn_peer[164] 	lookupTimeSig:mean 	3.3666666666667
scalar Network.dyn_peer[164] 	lookupStabilitySig:mean 	0.94603793664525
scalar Network.dyn_peer[164] 	lookupHopsSig:mean 	32.833333333333
scalar Network.dyn_peer[165] 	lookupTimeSig:mean 	2.15
scalar Network.dyn_peer[165] 	lookupStabilitySig:mean 	0.31063682865351
scalar Network.dyn_peer[165] 	lookupHopsSig:mean 	20.75
scalar Network.dyn_peer[166] 	lookupTimeSig:mean 	1.6571428571429
scalar Network.dyn_peer[166] 	lookupStabilitySig:mean 	0.55281842633017
scalar Network.dyn_peer[166] 	lookupHopsSig:mean 	15.714285714286
scalar Network.dyn_peer[167] 	lookupTimeSig:mean 	2.025
scalar Network.dyn_peer[167] 	lookupStabilitySig:mean 	0.94210987375118
scalar Network.dyn_peer[167] 	lookupHopsSig:mean 	19.375
scalar Network.dyn_peer[168] 	lookupTimeSig:mean 	2.1
scalar Network.dyn_peer[168] 	lookupStabilitySig:mean 	0.79227476171218
scalar Network.dyn_peer[168] 	lookupHopsSig:mean 	20.125
scalar Network.dyn_peer[169] 	lookupTimeSig:mean 	2.2666666666667
scalar Network.dyn_peer[169] 	lookupStabilitySig:mean 	0.2008401354154
scalar Network.dyn_peer[169] 	lookupHopsSig:mean 	22
scalar Network.dyn_peer[170] 	lookupTimeSig:mean 	2.95
scalar Network.dyn_peer[170] 	lookupStabilitySig:mean 	0.83511568885297
scalar Network.dyn_peer[170] 	lookupHopsSig:mean 	28.75
scalar Network.dyn_peer[171] 	lookupTimeSig:mean 	2.1777777777778
scalar Network.dyn_peer[171] 	lookupStabilitySig:mean 	0.83476949234804
scalar Network.dyn_peer[171] 	lookupHopsSig:mean 	20.888888888889
scalar Network.dyn_peer[172] 	lookupTimeSig:mean 	1.925
scalar Network.dyn_peer[172] 	lookupStabilitySig:mean 	0.79089668899542
scalar Network.dyn_peer[172] 	lookupHopsSig:mean 	18.375
scalar Network.dyn_peer[173] 	lookupTimeSig:mean 	1.85
scalar Network.dyn_peer[173] 	lookupStabilitySig:mean 	0.90827155686566
scalar Network.dyn_peer[173] 	lookupHopsSig:mean 	17.625
scalar Network.dyn_peer[174] 	lookupTimeSig:mean 	1.2714285714286
scalar Network.dyn_peer[174] 	lookupStabilitySig:mean 	0.58309447179948
scalar Network.dyn_peer[174] 	lookupHopsSig:mean 	11.857142857143
scalar Network.dyn_peer[175] 	lookupTimeSig:mean 	1.5818181818182
scalar Network.dyn_peer[175] 	lookupStabilitySig:mean 	0.84801451510496
scalar Network.dyn_peer[175] 	lookupHopsSig:mean 	14.909090909091
scalar Network.dyn_peer[176] 	lookupTimeSig:mean 	1.2333333333333
scalar Network.dyn_peer[176] 	lookupStabilitySig:mean 	0.19267140825589
scalar Network.dyn_peer[176] 	lookupHopsSig:mean 	11.666666666667
scalar Network.dyn_peer[177] 	lookupTimeSig:mean 	2.1555555555556
scalar Network.dyn_peer[177] 	lookupStabilitySig:mean 	0.630226486466
scalar Network.dyn_peer[177] 	lookupHopsSig:mean 	20.666666666667
scalar Network.dyn_peer[178] 	lookupTimeSig:mean 	3.55
scalar Network.dyn_peer[178] 	lookupStabilitySig:mean 	0.75564853101969
scalar Network.dyn_peer[178] 	lookupHopsSig:mean 	35
scalar Network.dyn_peer[179] 	lookupTimeSig:mean 	1.56
scalar Network.dyn_peer[179] 	lookupStabilitySig:mean 	0.75113255940378
scalar Network.dyn_peer[179] 	lookupHopsSig:mean 	14.8
scalar Network.dyn_peer[180] 	lookupTimeSig:mean 	2.14
scalar Network.dyn_peer[180] 	lookupStabilitySig:mean 	0.89070834740996
scalar Network.dyn_peer[180] 	lookupHopsSig:mean 	20.6
scalar Network.dyn_peer[181] 	lookupTimeSig:mean 	2.775
scalar Network.dyn_peer[181] 	lookupStabilitySig:mean 	0.32584827952087
scalar Network.dyn_peer[181] 	lookupHopsSig:mean 	27
scalar Network.dyn_peer[182] 	lookupTimeSig:mean 	1.6777777777778
scalar Network.dyn_peer[182] 	lookupStabilitySig:mean 	0.77832168319987
scalar Network.dyn_peer[182] 	lookupHopsSig:mean 	15.888888888889
scalar Network.dyn_peer[183] 	lookupTimeSig:mean 	4.8
scalar Network.dyn_peer[183] 	lookupStabilitySig:mean 	0.68461538106203
scalar Network.dyn_peer[183] 	lookupHopsSig:mean 	47.5
scalar Network.dyn_peer[184] 	lookupTimeSig:mean 	2.1
scalar Network.dyn_peer[184] 	lookupStabilitySig:mean 	0.94811432482675
scalar Network.dyn_peer[184] 	lookupHopsSig:mean 	20.090909090909
scalar Network.dyn_peer[185] 	lookupTimeSig:mean 	2.15
scalar Network.dyn_peer[185] 	lookupStabilitySig:mean 	0.82747574697714
scalar Network.dyn_peer[185] 	lookupHopsSig:mean 	20.625
scalar Network.dyn_peer[186] 	lookupTimeSig:mean 	2.075
scalar Network.dyn_peer[186] 	lookupStabilitySig:mean 	0.37657384946942
scalar Network.dyn_peer[186] 	lookupHopsSig:mean 	20
scalar Network.dyn_peer[187] 	lookupTimeSig:mean 	2.8285714285714
scalar Network.dyn_peer[187] 	lookupStabilitySig:mean 	0.94499837261225
scalar Network.dyn_peer[187] 	lookupHopsSig:mean 	27.428571428571
scalar Network.dyn_peer[188] 	lookupTimeSig:mean 	2.475
scalar Network.dyn_peer[188] 	lookupStabilitySig:mean 	0.5388371925801
scalar Network.dyn_peer[188] 	lookupHopsSig:mean 	24
scalar Network.dyn_peer[189] 	lookupTimeSig:mean 	2.25
scalar Network.dyn_peer[189] 	lookupStabilitySig:mean 	0.92246955588926
scalar Network.dyn_peer[189] 	lookupHopsSig:mean 	21.6
scalar Network.dyn_peer[190] 	lookupTimeSig:mean 	1.1454545454545
scalar Network.dyn_peer[190] 	lookupStabilitySig:mean 	0.92209941919216
scalar Network.dyn_peer[190] 	lookupHopsSig:mean 	10.545454545455
scalar Network.dyn_peer[191] 	lookupTimeSig:mean 	3.5
scalar Network.dyn_peer[191] 	lookupStabilitySig:mean 	0.5374174490571
scalar Network.dyn_peer[191] 	lookupHopsSig:mean 	34.5
scalar Network.dyn_peer[192] 	lookupTimeSig:mean 	3.7333333333333
scalar Network.dyn_peer[192] 	lookupStabilitySig:mean 	0.84826316063603
scalar Network.dyn_peer[192] 	lookupHopsSig:mean 	36.666666666667
scalar Network.dyn_peer[193] 	lookupTimeSig:mean 	1.9875
scalar Network.dyn_peer[193] 	lookupStabilitySig:mean 	0.83732352708466
scalar Network.dyn_peer[193] 	lookupHopsSig:mean 	19
scalar Network.dyn_peer[194] 	lookupTimeSig:mean 	2.95
scalar Network.dyn_peer[194] 	lookupStabilitySig:mean 	0.62692505959421
scalar Network.dyn_peer[194] 	lookupHopsSig:mean 	28.75
scalar Network.dyn_peer[195] 	lookupTimeSig:mean 	1.83
scalar Network.dyn_peer[195] 	lookupStabilitySig:mean 	0.79122481793165
scalar Network.dyn_peer[195] 	lookupHopsSig:mean 	17.4
scalar Network.dyn_peer[196] 	lookupTimeSig:mean 	2.0333333333333
scalar Network.dyn_peer[196] 	lookupStabilitySig:mean 	0.87053090189066
scalar Network.dyn_peer[196] 	lookupHopsSig:mean 	19.444444444444
scalar Network.dyn_peer[197] 	lookupTimeSig:mean 	1.38
scalar Network.dyn_peer[197] 	lookupStabilitySig:mean 	0.80551660656929
scalar Network.dyn_peer[197] 	lookupHopsSig:mean 	13
scalar Network.dyn_peer[198] 	lookupTimeSig:mean 	3.95
scalar Network.dyn_peer[198] 	lookupStabilitySig:mean 	-0.19940479844809
scalar Network.dyn_peer[198] 	lookupHopsSig:mean 	39
scalar Network.dyn_peer[199] 	lookupTimeSig:mean 	1.6666666666667
scalar Network.dyn_peer[199] 	lookupStabilitySig:mean 	0.81860563376298
scalar Network.dyn_peer[199] 	lookupHopsSig:mean 	15.833333333333
scalar Network.dyn_peer[200] 	lookupTimeSig:mean 	1.5666666666667
scalar Network.dyn_peer[200] 	lookupStabilitySig:mean 	0.75885095012685
scalar Network.dyn_peer[200] 	lookupHopsSig:mean 	14.777777777778
scalar Network.dyn_peer[201] 	lookupTimeSig:mean 	1.6
scalar Network.dyn_peer[201] 	lookupStabilitySig:mean 	0.29901434853673
scalar Network.dyn_peer[201] 	lookupHopsSig:mean 	15.25
scalar Network.dyn_peer[202] 	lookupTimeSig:mean 	2.65
scalar Network.dyn_peer[202] 	lookupStabilitySig:mean 	0.90495199058205
scalar Network.dyn_peer[202] 	lookupHopsSig:mean 	25.75
scalar Network.dyn_peer[203] 	lookupTimeSig:mean 	4.3666666666667
scalar Network.dyn_peer[203] 	lookupStabilitySig:mean 	0.18712803969781
scalar Network.dyn_peer[203] 	lookupHopsSig:mean 	43
scalar Network.dyn_peer[204] 	lookupTimeSig:mean 	3.1333333333333
scalar Network.dyn_peer[204] 	lookupStabilitySig:mean 	0.86502508819103
scalar Network.dyn_peer[204] 	lookupHopsSig:mean 	30.666666666667
scalar Network.dyn_peer[205] 	lookupTimeSig:mean 	2.7
scalar Network.dyn_peer[205] 	lookupStabilitySig:mean 	0.6749326462547
scalar Network.dyn_peer[205] 	lookupHopsSig:mean 	26.333333333333
scalar Network.dyn_peer[206] 	lookupTimeSig:mean 	3.675
scalar Network.dyn_peer[206] 	lookupStabilitySig:mean 	0.9294184113387
scalar Network.dyn_peer[206] 	lookupHopsSig:mean 	36
scalar Network.dyn_peer[207] 	lookupTimeSig:mean 	2
scalar Network.dyn_peer[207] 	lookupStabilitySig:mean 	0.33767361193895
scalar Network.dyn_peer[207] 	lookupHopsSig:mean 	19.25
scalar Network.dyn_peer[208] 	lookupTimeSig:mean 	2.3625
scalar Network.dyn_peer[208] 	lookupStabilitySig:mean 	0.93375230021775
scalar Network.dyn_peer[208] 	lookupHopsSig:mean 	22.75
scalar Network.dyn_peer[209] 	lookupTimeSig:mean 	2.0166666666667
scalar Network.dyn_peer[209] 	lookupStabilitySig:mean 	0.51777957069377
scalar Network.dyn_peer[209] 	lookupHopsSig:mean 	19.333333333333
scalar Network.dyn_peer[210] 	lookupTimeSig:mean 	4.7
scalar Network.dyn_peer[210] 	lookupStabilitySig:mean 	0.79131223633885
scalar Network.dyn_peer[210] 	lookupHopsSig:mean 	46.5
scalar Network.dyn_peer[211] 	lookupTimeSig:mean 	2.8333333333333
scalar Network.dyn_peer[211] 	lookupStabilitySig:mean 	0.59174195180337
scalar Network.dyn_peer[211] 	lookupHopsSig:mean 	27.666666666667
scalar Network.dyn_peer[212] 	lookupTimeSig:mean 	1.6
scalar Network.dyn_peer[212] 	lookupStabilitySig:mean 	0.88747609481215
scalar Network.dyn_peer[212] 	lookupHopsSig:mean 	15.1
scalar Network.dyn_peer[213] 	lookupTimeSig:mean 	2.4333333333333
scalar Network.dyn_peer[213] 	lookupStabilitySig:mean 	0.90145157774289
scalar Network.dyn_peer[213] 	lookupHopsSig:mean 	23.5
scalar Network.dyn_peer[214] 	lookupTimeSig:mean 	1.5333333333333
scalar Network.dyn_peer[214] 	lookupStabilitySig:mean 	0.45612448950609
scalar Network.dyn_peer[214] 	lookupHopsSig:mean 	14.666666666667
scalar Network.dyn_peer[215] 	lookupTimeSig:mean 	1.85
scalar Network.dyn_peer[215] 	lookupStabilitySig:mean 	0.83438221551478
scalar Network.dyn_peer[215] 	lookupHopsSig:mean 	17.666666666667
scalar Network.dyn_peer[216] 	lookupTimeSig:mean 	1.6
scalar Network.dyn_peer[216] 	lookupStabilitySig:mean 	0.20176396270593
scalar Network.dyn_peer[216] 	lookupHopsSig:mean 	15.333333333333
scalar Network.dyn_peer[217] 	lookupTimeSig:mean 	1.6166666666667
scalar Network.dyn_peer[217] 	lookupStabilitySig:mean 	0.83365944183121
scalar Network.dyn_peer[217] 	lookupHopsSig:mean 	15.333333333333
scalar Network.dyn_peer[218] 	lookupTimeSig:mean 	2
scalar Network.dyn_peer[218] 	lookupStabilitySig:mean 	0.87753407923239
scalar Network.dyn_peer[218] 	lookupHopsSig:mean 	19.142857142857
scalar Network.dyn_peer[219] 	lookupTimeSig:mean 	1.5625
scalar Network.dyn_peer[219] 	lookupStabilitySig:mean 	0.60541343037039
scalar Network.dyn_peer[219] 	lookupHopsSig:mean 	14.75
scalar Network.dyn_peer[220] 	lookupTimeSig:mean 	1.825
scalar Network.dyn_peer[220] 	lookupStabilitySig:mean 	0.8944592513144
scalar Network.dyn_peer[220] 	lookupHopsSig:mean 	17.375
scalar Network.dyn_peer[221] 	lookupTimeSig:mean 	4.9
scalar Network.dyn_peer[221] 	lookupStabilitySig:mean 	0.6666110381484
scalar Network.dyn_peer[221] 	lookupHopsSig:mean 	48.5
scalar Network.dyn_peer[222] 	lookupTimeSig:mean 	2.7
scalar Network.dyn_peer[222] 	lookupStabilitySig:mean 	0.44265571733316
scalar Network.dyn_peer[222] 	lookupHopsSig:mean 	26.333333333333
scalar Network.dyn_peer[223] 	lookupTimeSig:mean 	1.51
scalar Network.dyn_peer[223] 	lookupStabilitySig:mean 	0.72814048221335
scalar Network.dyn_peer[223] 	lookupHopsSig:mean 	14.2
scalar Network.dyn_peer[224] 	lookupTimeSig:mean 	2.9
scalar Network.dyn_peer[224] 	lookupStabilitySig:mean 	0.74404815832774
scalar Network.dyn_peer[224] 	lookupHopsSig:mean 	28.333333333333
scalar Network.dyn_peer[225] 	lookupTimeSig:mean 	2.4888888888889
scalar Network.dyn_peer[225] 	lookupStabilitySig:mean 	0.94990505278111
scalar Network.dyn_peer[225] 	lookupHopsSig:mean 	24
scalar Network.dyn_peer[226] 	lookupTimeSig:mean 	1.8571428571429
scalar Network.dyn_peer[226] 	lookupStabilitySig:mean 	0.68825421375888
scalar Network.dyn_peer[226] 	lookupHopsSig:mean 	17.714285714286
scalar Network.dyn_peer[227] 	lookupTimeSig:mean 	2.2833333333333
scalar Network.dyn_peer[227] 	lookupStabilitySig:mean 	0.85883136776586
scalar Network.dyn_peer[227] 	lookupHopsSig:mean 	22
scalar Network.dyn_peer[228] 	lookupTimeSig:mean 	1.3
scalar Network.dyn_peer[228] 	lookupStabilitySig:mean 	0.79706524312496
scalar Network.dyn_peer[228] 	lookupHopsSig:mean 	12.2
scalar Network.dyn_peer[229] 	lookupTimeSig:mean 	1.8
scalar Network.dyn_peer[229] 	lookupStabilitySig:mean 	0.86169583201408
scalar Network.dyn_peer[229] 	lookupHopsSig:mean 	17.2
scalar Network.dyn_peer[230] 	lookupTimeSig:mean 	1.8428571428571
scalar Network.dyn_peer[230] 	lookupStabilitySig:mean 	0.70134230822857
scalar Network.dyn_peer[230] 	lookupHopsSig:mean 	17.571428571429
scalar Network.dyn_peer[231] 	lookupTimeSig:mean 	2.75
scalar Network.dyn_peer[231] 	lookupStabilitySig:mean 	0.62180852144957
scalar Network.dyn_peer[231] 	lookupHopsSig:mean 	27
scalar Network.dyn_peer[232] 	lookupTimeSig:mean 	2.8
scalar Network.dyn_peer[232] 	lookupStabilitySig:mean 	0.60273373126984
scalar Network.dyn_peer[232] 	lookupHopsSig:mean 	27.2
scalar Network.dyn_peer[233] 	lookupTimeSig:mean 	2.3615384615385
scalar Network.dyn_peer[233] 	lookupStabilitySig:mean 	0.9572026968862
scalar Network.dyn_peer[233] 	lookupHopsSig:mean 	22.692307692308
scalar Network.dyn_peer[234] 	lookupTimeSig:mean 	2.0636363636364
scalar Network.dyn_peer[234] 	lookupStabilitySig:mean 	0.75928867295046
scalar Network.dyn_peer[234] 	lookupHopsSig:mean 	19.727272727273
scalar Network.dyn_peer[235] 	lookupTimeSig:mean 	1.7
scalar Network.dyn_peer[235] 	lookupStabilitySig:mean 	0.21071069687605
scalar Network.dyn_peer[235] 	lookupHopsSig:mean 	16.333333333333
scalar Network.dyn_peer[236] 	lookupTimeSig:mean 	2.48
scalar Network.dyn_peer[236] 	lookupStabilitySig:mean 	0.95316073093563
scalar Network.dyn_peer[236] 	lookupHopsSig:mean 	23.9
scalar Network.dyn_peer[237] 	lookupTimeSig:mean 	1.86
scalar Network.dyn_peer[237] 	lookupStabilitySig:mean 	0.79082273095846
scalar Network.dyn_peer[237] 	lookupHopsSig:mean 	17.8
scalar Network.dyn_peer[238] 	lookupTimeSig:mean 	2.66
scalar Network.dyn_peer[238] 	lookupStabilitySig:mean 	0.86233916990459
scalar Network.dyn_peer[238] 	lookupHopsSig:mean 	25.8
scalar Network.dyn_peer[239] 	lookupTimeSig:mean 	2.4166666666667
scalar Network.dyn_peer[239] 	lookupStabilitySig:mean 	0.92080360433708
scalar Network.dyn_peer[239] 	lookupHopsSig:mean 	23.333333333333
scalar Network.dyn_peer[240] 	lookupTimeSig:mean 	1.34
scalar Network.dyn_peer[240] 	lookupStabilitySig:mean 	0.38446626067162
scalar Network.dyn_peer[240] 	lookupHopsSig:mean 	12.6
scalar Network.dyn_peer[241] 	lookupTimeSig:mean 	1.275
scalar Network.dyn_peer[241] 	lookupStabilitySig:mean 	0.32919218204916
scalar Network.dyn_peer[241] 	lookupHopsSig:mean 	12
scalar Network.dyn_peer[242] 	lookupTimeSig:mean 	2.375
scalar Network.dyn_peer[242] 	lookupStabilitySig:mean 	0.74137136852369
scalar Network.dyn_peer[242] 	lookupHopsSig:mean 	23
scalar Network.dyn_peer[243] 	lookupTimeSig:mean 	1.9363636363636
scalar Network.dyn_peer[243] 	lookupStabilitySig:mean 	0.8289955469187
scalar Network.dyn_peer[243] 	lookupHopsSig:mean 	18.454545454545
scalar Network.dyn_peer[244] 	lookupTimeSig:mean 	2.425
scalar Network.dyn_peer[244] 	lookupStabilitySig:mean 	0.89027087320574
scalar Network.dyn_peer[244] 	lookupHopsSig:mean 	23.375
scalar Network.dyn_peer[245] 	lookupTimeSig:mean 	1.8222222222222
scalar Network.dyn_peer[245] 	lookupStabilitySig:mean 	0.85713231278997
scalar Network.dyn_peer[245] 	lookupHopsSig:mean 	17.333333333333
scalar Network.dyn_peer[246] 	lookupTimeSig:mean 	1.425
scalar Network.dyn_peer[246] 	lookupStabilitySig:mean 	0.88618126674555
scalar Network.dyn_peer[246] 	lookupHopsSig:mean 	13.375
scalar Network.dyn_peer[247] 	lookupTimeSig:mean 	1.7222222222222
scalar Network.dyn_peer[247] 	lookupStabilitySig:mean 	0.70027861288852
scalar Network.dyn_peer[247] 	lookupHopsSig:mean 	16.333333333333
scalar Network.dyn_peer[248] 	lookupTimeSig:mean 	2.0333333333333
scalar Network.dyn_peer[248] 	lookupStabilitySig:mean 	0.70179909467697
scalar Network.dyn_peer[248] 	lookupHopsSig:mean 	19.666666666667
scalar Network.dyn_peer[249] 	lookupTimeSig:mean 	2.1375
scalar Network.dyn_peer[249] 	lookupStabilitySig:mean 	0.82854975853115
scalar Network.dyn_peer[249] 	lookupHopsSig:mean 	20.5
scalar Network.dyn_peer[250] 	lookupTimeSig:mean 	2.325
scalar Network.dyn_peer[250] 	lookupStabilitySig:mean 	0.87503322632983
scalar Network.dyn_peer[250] 	lookupHopsSig:mean 	22.375
scalar Network.dyn_peer[251] 	lookupTimeSig:mean 	2.425
scalar Network.dyn_peer[251] 	lookupStabilitySig:mean 	0.27620601840317
scalar Network.dyn_peer[251] 	lookupHopsSig:mean 	23.5
scalar Network.dyn_peer[252] 	lookupTimeSig:mean 	3.1
scalar Network.dyn_peer[252] 	lookupStabilitySig:mean 	0.70451811949412
scalar Network.dyn_peer[252] 	lookupHopsSig:mean 	30.333333333333
scalar Network.dyn_peer[253] 	lookupTimeSig:mean 	0.725
scalar Network.dyn_peer[253] 	lookupStabilitySig:mean 	0.22916666045785
scalar Network.dyn_peer[253] 	lookupHopsSig:mean 	6.5
scalar Network.dyn_peer[254] 	lookupTimeSig:mean 	3.1333333333333
scalar Network.dyn_peer[254] 	lookupStabilitySig:mean 	0.84786143650611
scalar Network.dyn_peer[254] 	lookupHopsSig:mean 	30.666666666667
scalar Network.dyn_peer[255] 	lookupTimeSig:mean 	2.7833333333333
scalar Network.dyn_peer[255] 	lookupStabilitySig:mean 	0.78801123953114
scalar Network.dyn_peer[255] 	lookupHopsSig:mean 	27
scalar Network.dyn_peer[256] 	lookupTimeSig:mean 	1.8
scalar Network.dyn_peer[256] 	lookupStabilitySig:mean 	0.86397260303299
scalar Network.dyn_peer[256] 	lookupHopsSig:mean 	17.166666666667
scalar Network.dyn_peer[257] 	lookupTimeSig:mean 	0.92
scalar Network.dyn_peer[257] 	lookupStabilitySig:mean 	0.48007012754679
scalar Network.dyn_peer[257] 	lookupHopsSig:mean 	8.4
scalar Network.dyn_peer[258] 	lookupTimeSig:mean 	5.45
scalar Network.dyn_peer[258] 	lookupStabilitySig:mean 	0.5378295108676
scalar Network.dyn_peer[258] 	lookupHopsSig:mean 	54
scalar Network.dyn_peer[259] 	lookupTimeSig:mean 	2.75
scalar Network.dyn_peer[259] 	lookupStabilitySig:mean 	0.79874058440328
scalar Network.dyn_peer[259] 	lookupHopsSig:mean 	26.75
scalar Network.dyn_peer[260] 	lookupTimeSig:mean 	1.8166666666667
scalar Network.dyn_peer[260] 	lookupStabilitySig:mean 	0.72768180755277
scalar Network.dyn_peer[260] 	lookupHopsSig:mean 	17.333333333333
scalar Network.dyn_peer[261] 	lookupTimeSig:mean 	1.8428571428571
scalar Network.dyn_peer[261] 	lookupStabilitySig:mean 	0.84493342773723
scalar Network.dyn_peer[261] 	lookupHopsSig:mean 	17.571428571429
scalar Network.dyn_peer[262] 	lookupTimeSig:mean 	2.2
scalar Network.dyn_peer[262] 	lookupStabilitySig:mean 	0.68100077547133
scalar Network.dyn_peer[262] 	lookupHopsSig:mean 	21.2
scalar Network.dyn_peer[263] 	lookupTimeSig:mean 	2.1857142857143
scalar Network.dyn_peer[263] 	lookupStabilitySig:mean 	0.60498172949467
scalar Network.dyn_peer[263] 	lookupHopsSig:mean 	21
scalar Network.dyn_peer[264] 	lookupTimeSig:mean 	1.875
scalar Network.dyn_peer[264] 	lookupStabilitySig:mean 	0.7888368931599
scalar Network.dyn_peer[264] 	lookupHopsSig:mean 	18
scalar Network.dyn_peer[265] 	lookupTimeSig:mean 	2
scalar Network.dyn_peer[265] 	lookupStabilitySig:mean 	0.82251406673874
scalar Network.dyn_peer[265] 	lookupHopsSig:mean 	19.142857142857
scalar Network.dyn_peer[266] 	lookupTimeSig:mean 	2.5
scalar Network.dyn_peer[266] 	lookupStabilitySig:mean 	0.37943306635134
scalar Network.dyn_peer[266] 	lookupHopsSig:mean 	24.25
scalar Network.dyn_peer[267] 	lookupTimeSig:mean 	2.6833333333333
scalar Network.dyn_peer[267] 	lookupStabilitySig:mean 	0.9033760347714
scalar Network.dyn_peer[267] 	lookupHopsSig:mean 	26
scalar Network.dyn_peer[268] 	lookupTimeSig:mean 	1.6571428571429
scalar Network.dyn_peer[268] 	lookupStabilitySig:mean 	0.80649608613125
scalar Network.dyn_peer[268] 	lookupHopsSig:mean 	15.714285714286
scalar Network.dyn_peer[269] 	lookupTimeSig:mean 	2.0333333333333
scalar Network.dyn_peer[269] 	lookupStabilitySig:mean 	0.43295019368331
scalar Network.dyn_peer[269] 	lookupHopsSig:mean 	19.666666666667
scalar Network.dyn_peer[270] 	lookupTimeSig:mean 	2.3714285714286
scalar Network.dyn_peer[270] 	lookupStabilitySig:mean 	0.93737149025713
scalar Network.dyn_peer[270] 	lookupHopsSig:mean 	22.857142857143
scalar Network.dyn_peer[271] 	lookupTimeSig:mean 	1.8
scalar Network.dyn_peer[271] 	lookupStabilitySig:mean 	0.79286305659584
scalar Network.dyn_peer[271] 	lookupHopsSig:mean 	17.142857142857
scalar Network.dyn_peer[272] 	lookupTimeSig:mean 	1.98
scalar Network.dyn_peer[272] 	lookupStabilitySig:mean 	0.43101028054953
scalar Network.dyn_peer[272] 	lookupHopsSig:mean 	19
scalar Network.dyn_peer[273] 	lookupTimeSig:mean 	0.83333333333333
scalar Network.dyn_peer[273] 	lookupStabilitySig:mean 	0.18611112236977
scalar Network.dyn_peer[273] 	lookupHopsSig:mean 	7.6666666666667
scalar Network.dyn_peer[274] 	lookupTimeSig:mean 	1.9
scalar Network.dyn_peer[274] 	lookupStabilitySig:mean 	0.86422058350096
scalar Network.dyn_peer[274] 	lookupHopsSig:mean 	18.111111111111
scalar Network.dyn_peer[275] 	lookupTimeSig:mean 	1.5
scalar Network.dyn_peer[275] 	lookupStabilitySig:mean 	-0.22796937823296
scalar Network.dyn_peer[275] 	lookupHopsSig:mean 	14.5
scalar Network.dyn_peer[276] 	lookupTimeSig:mean 	2.0444444444444
scalar Network.dyn_peer[276] 	lookupStabilitySig:mean 	0.76394619482259
scalar Network.dyn_peer[276] 	lookupHopsSig:mean 	19.555555555556
scalar Network.dyn_peer[277] 	lookupTimeSig:mean 	1.8
scalar Network.dyn_peer[277] 	lookupStabilitySig:mean 	0.75035479771239
scalar Network.dyn_peer[277] 	lookupHopsSig:mean 	17.142857142857
scalar Network.dyn_peer[278] 	lookupTimeSig:mean 	1.1
scalar Network.dyn_peer[278] 	lookupStabilitySig:mean 	0.409010309726
scalar Network.dyn_peer[278] 	lookupHopsSig:mean 	10.25
scalar Network.dyn_peer[279] 	lookupTimeSig:mean 	1.65
scalar Network.dyn_peer[279] 	lookupStabilitySig:mean 	0.45224581100047
scalar Network.dyn_peer[279] 	lookupHopsSig:mean 	15.75
scalar Network.dyn_peer[280] 	lookupTimeSig:mean 	2.1
scalar Network.dyn_peer[280] 	lookupStabilitySig:mean 	0.6859389214466
scalar Network.dyn_peer[280] 	lookupHopsSig:mean 	20.166666666667
scalar Network.dyn_peer[281] 	lookupTimeSig:mean 	1.9142857142857
scalar Network.dyn_peer[281] 	lookupStabilitySig:mean 	0.94863536273728
scalar Network.dyn_peer[281] 	lookupHopsSig:mean 	18.214285714286
scalar Network.dyn_peer[282] 	lookupTimeSig:mean 	2.18
scalar Network.dyn_peer[282] 	lookupStabilitySig:mean 	0.61887450888753
scalar Network.dyn_peer[282] 	lookupHopsSig:mean 	21
scalar Network.dyn_peer[283] 	lookupTimeSig:mean 	1.2
scalar Network.dyn_peer[283] 	lookupStabilitySig:mean 	0.60848913993686
scalar Network.dyn_peer[283] 	lookupHopsSig:mean 	11.25
scalar Network.dyn_peer[284] 	lookupTimeSig:mean 	1.925
scalar Network.dyn_peer[284] 	lookupStabilitySig:mean 	0.8179889745079
scalar Network.dyn_peer[284] 	lookupHopsSig:mean 	18.375
scalar Network.dyn_peer[285] 	lookupTimeSig:mean 	2.6285714285714
scalar Network.dyn_peer[285] 	lookupStabilitySig:mean 	0.89610863077853
scalar Network.dyn_peer[285] 	lookupHopsSig:mean 	25.428571428571
scalar Network.dyn_peer[286] 	lookupTimeSig:mean 	1.9
scalar Network.dyn_peer[286] 	lookupStabilitySig:mean 	0.50219296291471
scalar Network.dyn_peer[286] 	lookupHopsSig:mean 	18.25
scalar Network.dyn_peer[287] 	lookupTimeSig:mean 	1.68
scalar Network.dyn_peer[287] 	lookupStabilitySig:mean 	0.47944647818804
scalar Network.dyn_peer[287] 	lookupHopsSig:mean 	16
scalar Network.dyn_peer[288] 	lookupTimeSig:mean 	2.4
scalar Network.dyn_peer[288] 	lookupStabilitySig:mean 	0.87456034868956
scalar Network.dyn_peer[288] 	lookupHopsSig:mean 	23.25
scalar Network.dyn_peer[289] 	lookupTimeSig:mean 	2.3666666666667
scalar Network.dyn_peer[289] 	lookupStabilitySig:mean 	0.73165312285225
scalar Network.dyn_peer[289] 	lookupHopsSig:mean 	23
scalar Network.dyn_peer[290] 	lookupTimeSig:mean 	3.85
scalar Network.dyn_peer[290] 	lookupStabilitySig:mean 	0.53546534478664
scalar Network.dyn_peer[290] 	lookupHopsSig:mean 	38
scalar Network.dyn_peer[291] 	lookupTimeSig:mean 	2
scalar Network.dyn_peer[291] 	lookupStabilitySig:mean 	0.73619340360165
scalar Network.dyn_peer[291] 	lookupHopsSig:mean 	19.333333333333
scalar Network.dyn_peer[292] 	lookupTimeSig:mean 	1.55
scalar Network.dyn_peer[292] 	lookupStabilitySig:mean 	0.93675332974332
scalar Network.dyn_peer[292] 	lookupHopsSig:mean 	14.583333333333
scalar Network.dyn_peer[293] 	lookupTimeSig:mean 	2.8
scalar Network.dyn_peer[293] 	lookupStabilitySig:mean 	0.16732180118561
scalar Network.dyn_peer[293] 	lookupHopsSig:mean 	27.333333333333
scalar Network.dyn_peer[294] 	lookupTimeSig:mean 	1.9666666666667
scalar Network.dyn_peer[294] 	lookupStabilitySig:mean 	0.22585940857728
scalar Network.dyn_peer[294] 	lookupHopsSig:mean 	19
scalar Network.dyn_peer[295] 	lookupTimeSig:mean 	2.475
scalar Network.dyn_peer[295] 	lookupStabilitySig:mean 	0.59963142126799
scalar Network.dyn_peer[295] 	lookupHopsSig:mean 	24
scalar Network.dyn_peer[296] 	lookupTimeSig:mean 	2.975
scalar Network.dyn_peer[296] 	lookupStabilitySig:mean 	0.83124599279836
scalar Network.dyn_peer[296] 	lookupHopsSig:mean 	29
scalar Network.dyn_peer[297] 	lookupTimeSig:mean 	0.975
scalar Network.dyn_peer[297] 	lookupStabilitySig:mean 	0.29813665524125
scalar Network.dyn_peer[297] 	lookupHopsSig:mean 	9
scalar Network.dyn_peer[298] 	lookupTimeSig:mean 	1.675
scalar Network.dyn_peer[298] 	lookupStabilitySig:mean 	0.88997725886293
scalar Network.dyn_peer[298] 	lookupHopsSig:mean 	15.875
scalar Network.dyn_peer[299] 	lookupTimeSig:mean 	2.4666666666667
scalar Network.dyn_peer[299] 	lookupStabilitySig:mean 	0.75489181901018
scalar Network.dyn_peer[299] 	lookupHopsSig:mean 	24
scalar Network.dyn_peer[300] 	lookupTimeSig:mean 	1.8857142857143
scalar Network.dyn_peer[300] 	lookupStabilitySig:mean 	0.89974382187107
scalar Network.dyn_peer[300] 	lookupHopsSig:mean 	18
scalar Network.dyn_peer[301] 	lookupTimeSig:mean 	2.1
scalar Network.dyn_peer[301] 	lookupStabilitySig:mean 	0.69553153845482
scalar Network.dyn_peer[301] 	lookupHopsSig:mean 	20.25
scalar Network.dyn_peer[302] 	lookupTimeSig:mean 	1.325
scalar Network.dyn_peer[302] 	lookupStabilitySig:mean 	0.75679023125364
scalar Network.dyn_peer[302] 	lookupHopsSig:mean 	12.333333333333
scalar Network.dyn_peer[303] 	lookupTimeSig:mean 	1.42
scalar Network.dyn_peer[303] 	lookupStabilitySig:mean 	0.48158932328224
scalar Network.dyn_peer[303] 	lookupHopsSig:mean 	13.4
scalar Network.dyn_peer[304] 	lookupTimeSig:mean 	2.5285714285714
scalar Network.dyn_peer[304] 	lookupStabilitySig:mean 	0.93681682766016
scalar Network.dyn_peer[304] 	lookupHopsSig:mean 	24.428571428571
scalar Network.dyn_peer[305] 	lookupTimeSig:mean 	2.0384615384615
scalar Network.dyn_peer[305] 	lookupStabilitySig:mean 	0.89176679377516
scalar Network.dyn_peer[305] 	lookupHopsSig:mean 	19.461538461538
scalar Network.dyn_peer[306] 	lookupTimeSig:mean 	1.7142857142857
scalar Network.dyn_peer[306] 	lookupStabilitySig:mean 	0.66786510790033
scalar Network.dyn_peer[306] 	lookupHopsSig:mean 	16.285714285714
scalar Network.dyn_peer[307] 	lookupTimeSig:mean 	2.6625
scalar Network.dyn_peer[307] 	lookupStabilitySig:mean 	0.94671415293124
scalar Network.dyn_peer[307] 	lookupHopsSig:mean 	25.75
scalar Network.dyn_peer[308] 	lookupTimeSig:mean 	2.0125
scalar Network.dyn_peer[308] 	lookupStabilitySig:mean 	0.63529563043267
scalar Network.dyn_peer[308] 	lookupHopsSig:mean 	19.25
scalar Network.dyn_peer[309] 	lookupTimeSig:mean 	0.96
scalar Network.dyn_peer[309] 	lookupStabilitySig:mean 	0.44359169136733
scalar Network.dyn_peer[309] 	lookupHopsSig:mean 	8.8
scalar Network.dyn_peer[310] 	lookupTimeSig:mean 	1.72
scalar Network.dyn_peer[310] 	lookupStabilitySig:mean 	0.75248853508383
scalar Network.dyn_peer[310] 	lookupHopsSig:mean 	16.4
scalar Network.dyn_peer[311] 	lookupTimeSig:mean 	2.2875
scalar Network.dyn_peer[311] 	lookupStabilitySig:mean 	0.89006101503037
scalar Network.dyn_peer[311] 	lookupHopsSig:mean 	22
scalar Network.dyn_peer[312] 	lookupTimeSig:mean 	2.78
scalar Network.dyn_peer[312] 	lookupStabilitySig:mean 	0.92699633296579
scalar Network.dyn_peer[312] 	lookupHopsSig:mean 	27
scalar Network.dyn_peer[313] 	lookupTimeSig:mean 	2.19
scalar Network.dyn_peer[313] 	lookupStabilitySig:mean 	0.86492976108566
scalar Network.dyn_peer[313] 	lookupHopsSig:mean 	21
scalar Network.dyn_peer[314] 	lookupTimeSig:mean 	1.8727272727273
scalar Network.dyn_peer[314] 	lookupStabilitySig:mean 	0.70922780257057
scalar Network.dyn_peer[314] 	lookupHopsSig:mean 	17.818181818182
scalar Network.dyn_peer[315] 	lookupTimeSig:mean 	1.3714285714286
scalar Network.dyn_peer[315] 	lookupStabilitySig:mean 	0.56089643442205
scalar Network.dyn_peer[315] 	lookupHopsSig:mean 	12.857142857143
scalar Network.dyn_peer[316] 	lookupTimeSig:mean 	2.34
scalar Network.dyn_peer[316] 	lookupStabilitySig:mean 	0.83127618059516
scalar Network.dyn_peer[316] 	lookupHopsSig:mean 	22.6
scalar Network.dyn_peer[317] 	lookupTimeSig:mean 	1.8142857142857
scalar Network.dyn_peer[317] 	lookupStabilitySig:mean 	0.78895653717752
scalar Network.dyn_peer[317] 	lookupHopsSig:mean 	17.285714285714
scalar Network.dyn_peer[318] 	lookupTimeSig:mean 	1.6727272727273
scalar Network.dyn_peer[318] 	lookupStabilitySig:mean 	0.83098034204026
scalar Network.dyn_peer[318] 	lookupHopsSig:mean 	15.818181818182
scalar Network.dyn_peer[319] 	lookupTimeSig:mean 	3.16
scalar Network.dyn_peer[319] 	lookupStabilitySig:mean 	0.85842098221183
scalar Network.dyn_peer[319] 	lookupHopsSig:mean 	30.8
scalar Network.dyn_peer[320] 	lookupTimeSig:mean 	2.2
scalar Network.dyn_peer[320] 	lookupStabilitySig:mean 	0.53264691587538
scalar Network.dyn_peer[320] 	lookupHopsSig:mean 	21.25
scalar Network.dyn_peer[321] 	lookupTimeSig:mean 	2.25
scalar Network.dyn_peer[321] 	lookupStabilitySig:mean 	0.94438631262165
scalar Network.dyn_peer[321] 	lookupHopsSig:mean 	21.625
scalar Network.dyn_peer[322] 	lookupTimeSig:mean 	1.9
scalar Network.dyn_peer[322] 	lookupStabilitySig:mean 	0.68762580528855
scalar Network.dyn_peer[322] 	lookupHopsSig:mean 	18.2
scalar Network.dyn_peer[323] 	lookupTimeSig:mean 	4.9
scalar Network.dyn_peer[323] 	lookupStabilitySig:mean 	0.45537987351418
scalar Network.dyn_peer[323] 	lookupHopsSig:mean 	48.5
scalar Network.dyn_peer[324] 	lookupTimeSig:mean 	1.6375
scalar Network.dyn_peer[324] 	lookupStabilitySig:mean 	0.7917280032998
scalar Network.dyn_peer[324] 	lookupHopsSig:mean 	15.5
scalar Network.dyn_peer[325] 	lookupTimeSig:mean 	1.6
scalar Network.dyn_peer[325] 	lookupStabilitySig:mean 	0.91810997016728
scalar Network.dyn_peer[325] 	lookupHopsSig:mean 	15.111111111111
scalar Network.dyn_peer[326] 	lookupTimeSig:mean 	1.9833333333333
scalar Network.dyn_peer[326] 	lookupStabilitySig:mean 	0.8097443060639
scalar Network.dyn_peer[326] 	lookupHopsSig:mean 	19
scalar Network.dyn_peer[327] 	lookupTimeSig:mean 	1.94
scalar Network.dyn_peer[327] 	lookupStabilitySig:mean 	0.65246127657592
scalar Network.dyn_peer[327] 	lookupHopsSig:mean 	18.6
scalar Network.dyn_peer[328] 	lookupTimeSig:mean 	1.3105263157895
scalar Network.dyn_peer[328] 	lookupStabilitySig:mean 	0.86655674588033
scalar Network.dyn_peer[328] 	lookupHopsSig:mean 	12.157894736842
scalar Network.dyn_peer[329] 	lookupTimeSig:mean 	2
scalar Network.dyn_peer[329] 	lookupStabilitySig:mean 	0.89149574370822
scalar Network.dyn_peer[329] 	lookupHopsSig:mean 	19.125
scalar Network.dyn_peer[330] 	lookupTimeSig:mean 	1.8428571428571
scalar Network.dyn_peer[330] 	lookupStabilitySig:mean 	0.76996294442298
scalar Network.dyn_peer[330] 	lookupHopsSig:mean 	17.571428571429
scalar Network.dyn_peer[331] 	lookupTimeSig:mean 	1.65
scalar Network.dyn_peer[331] 	lookupStabilitySig:mean 	0.74924588936847
scalar Network.dyn_peer[331] 	lookupHopsSig:mean 	15.75
scalar Network.dyn_peer[332] 	lookupTimeSig:mean 	2.0333333333333
scalar Network.dyn_peer[332] 	lookupStabilitySig:mean 	0.79643539773921
scalar Network.dyn_peer[332] 	lookupHopsSig:mean 	19.5
scalar Network.dyn_peer[333] 	lookupTimeSig:mean 	1.7333333333333
scalar Network.dyn_peer[333] 	lookupStabilitySig:mean 	0.68575092467169
scalar Network.dyn_peer[333] 	lookupHopsSig:mean 	16.5
scalar Network.dyn_peer[334] 	lookupTimeSig:mean 	2.15
scalar Network.dyn_peer[334] 	lookupStabilitySig:mean 	0.7119110468775
scalar Network.dyn_peer[334] 	lookupHopsSig:mean 	20.75
scalar Network.dyn_peer[335] 	lookupTimeSig:mean 	2.3
scalar Network.dyn_peer[335] 	lookupStabilitySig:mean 	0.32670926302671
scalar Network.dyn_peer[335] 	lookupHopsSig:mean 	22.25
scalar Network.dyn_peer[336] 	lookupTimeSig:mean 	3.8666666666667
scalar Network.dyn_peer[336] 	lookupStabilitySig:mean 	0.88352626562119
scalar Network.dyn_peer[336] 	lookupHopsSig:mean 	38
scalar Network.dyn_peer[337] 	lookupTimeSig:mean 	1.075
scalar Network.dyn_peer[337] 	lookupStabilitySig:mean 	0.62693214602768
scalar Network.dyn_peer[337] 	lookupHopsSig:mean 	9.875
scalar Network.dyn_peer[338] 	lookupTimeSig:mean 	1.5
scalar Network.dyn_peer[338] 	lookupStabilitySig:mean 	0.9267722539265
scalar Network.dyn_peer[338] 	lookupHopsSig:mean 	14.090909090909
scalar Network.dyn_peer[339] 	lookupTimeSig:mean 	1.6833333333333
scalar Network.dyn_peer[339] 	lookupStabilitySig:mean 	0.70613766601309
scalar Network.dyn_peer[339] 	lookupHopsSig:mean 	16
scalar Network.dyn_peer[340] 	lookupTimeSig:mean 	2.25
scalar Network.dyn_peer[340] 	lookupStabilitySig:mean 	0.40481397230178
scalar Network.dyn_peer[340] 	lookupHopsSig:mean 	21.75
scalar Network.dyn_peer[341] 	lookupTimeSig:mean 	1.9333333333333
scalar Network.dyn_peer[341] 	lookupStabilitySig:mean 	0.38398374120394
scalar Network.dyn_peer[341] 	lookupHopsSig:mean 	18.666666666667
scalar Network.dyn_peer[342] 	lookupTimeSig:mean 	1.65
scalar Network.dyn_peer[342] 	lookupStabilitySig:mean 	0.33056719833985
scalar Network.dyn_peer[342] 	lookupHopsSig:mean 	15.75
scalar Network.dyn_peer[343] 	lookupTimeSig:mean 	1.69
scalar Network.dyn_peer[343] 	lookupStabilitySig:mean 	0.76280188653618
scalar Network.dyn_peer[343] 	lookupHopsSig:mean 	16
scalar Network.dyn_peer[344] 	lookupTimeSig:mean 	1.5222222222222
scalar Network.dyn_peer[344] 	lookupStabilitySig:mean 	0.73680595825944
scalar Network.dyn_peer[344] 	lookupHopsSig:mean 	14.333333333333
scalar Network.dyn_peer[345] 	lookupTimeSig:mean 	1.7
scalar Network.dyn_peer[345] 	lookupStabilitySig:mean 	0.72029816145077
scalar Network.dyn_peer[345] 	lookupHopsSig:mean 	16.1
scalar Network.dyn_peer[346] 	lookupTimeSig:mean 	1.4666666666667
scalar Network.dyn_peer[346] 	lookupStabilitySig:mean 	0.61944444477558
scalar Network.dyn_peer[346] 	lookupHopsSig:mean 	14
scalar Network.dyn_peer[347] 	lookupTimeSig:mean 	3.0666666666667
scalar Network.dyn_peer[347] 	lookupStabilitySig:mean 	0.75413437311848
scalar Network.dyn_peer[347] 	lookupHopsSig:mean 	30
scalar Network.dyn_peer[348] 	lookupTimeSig:mean 	1.0666666666667
scalar Network.dyn_peer[348] 	lookupStabilitySig:mean 	0.46651276604583
scalar Network.dyn_peer[348] 	lookupHopsSig:mean 	9.8333333333333
scalar Network.dyn_peer[349] 	lookupTimeSig:mean 	1.18
scalar Network.dyn_peer[349] 	lookupStabilitySig:mean 	0.68907881714404
scalar Network.dyn_peer[349] 	lookupHopsSig:mean 	11
scalar Network.dyn_peer[350] 	lookupTimeSig:mean 	2.3555555555556
scalar Network.dyn_peer[350] 	lookupStabilitySig:mean 	0.92683709630122
scalar Network.dyn_peer[350] 	lookupHopsSig:mean 	22.666666666667
scalar Network.dyn_peer[351] 	lookupTimeSig:mean 	0.8
scalar Network.dyn_peer[351] 	lookupStabilitySig:mean 	0.47764856815338
scalar Network.dyn_peer[351] 	lookupHopsSig:mean 	7.2
scalar Network.dyn_peer[352] 	lookupTimeSig:mean 	1.5375
scalar Network.dyn_peer[352] 	lookupStabilitySig:mean 	0.68556706648087
scalar Network.dyn_peer[352] 	lookupHopsSig:mean 	14.5
scalar Network.dyn_peer[353] 	lookupTimeSig:mean 	1.4666666666667
scalar Network.dyn_peer[353] 	lookupStabilitySig:mean 	0.66585462881873
scalar Network.dyn_peer[353] 	lookupHopsSig:mean 	13.777777777778
scalar Network.dyn_peer[354] 	lookupTimeSig:mean 	1.4666666666667
scalar Network.dyn_peer[354] 	lookupStabilitySig:mean 	0.40957737341523
scalar Network.dyn_peer[354] 	lookupHopsSig:mean 	14
scalar Network.dyn_peer[355] 	lookupTimeSig:mean 	1.65
scalar Network.dyn_peer[355] 	lookupStabilitySig:mean 	0.90310679754475
scalar Network.dyn_peer[355] 	lookupHopsSig:mean 	15.625
scalar Network.dyn_peer[356] 	lookupTimeSig:mean 	2.0111111111111
scalar Network.dyn_peer[356] 	lookupStabilitySig:mean 	0.80696306605306
scalar Network.dyn_peer[356] 	lookupHopsSig:mean 	19.222222222222
scalar Network.dyn_peer[357] 	lookupTimeSig:mean 	2.1
scalar Network.dyn_peer[357] 	lookupStabilitySig:mean 	0.73673674836755
scalar Network.dyn_peer[357] 	lookupHopsSig:mean 	20.166666666667
scalar Network.dyn_peer[358] 	lookupTimeSig:mean 	1.7727272727273
scalar Network.dyn_peer[358] 	lookupStabilitySig:mean 	0.92590746986256
scalar Network.dyn_peer[358] 	lookupHopsSig:mean 	16.818181818182
scalar Network.dyn_peer[359] 	lookupTimeSig:mean 	0.73333333333333
scalar Network.dyn_peer[359] 	lookupStabilitySig:mean 	0.19365079204241
scalar Network.dyn_peer[359] 	lookupHopsSig:mean 	6.6666666666667
scalar Network.dyn_peer[360] 	lookupTimeSig:mean 	2.25
scalar Network.dyn_peer[360] 	lookupStabilitySig:mean 	-0.10470776259899
scalar Network.dyn_peer[360] 	lookupHopsSig:mean 	22
scalar Network.dyn_peer[361] 	lookupTimeSig:mean 	3.7
scalar Network.dyn_peer[361] 	lookupStabilitySig:mean 	0.87089802301489
scalar Network.dyn_peer[361] 	lookupHopsSig:mean 	36.25
scalar Network.dyn_peer[362] 	lookupTimeSig:mean 	3.8
scalar Network.dyn_peer[362] 	lookupStabilitySig:mean 	0.74832407881816
scalar Network.dyn_peer[362] 	lookupHopsSig:mean 	37.333333333333
scalar Network.dyn_peer[363] 	lookupTimeSig:mean 	1.5875
scalar Network.dyn_peer[363] 	lookupStabilitySig:mean 	0.7173827974184
scalar Network.dyn_peer[363] 	lookupHopsSig:mean 	15
scalar Network.dyn_peer[364] 	lookupTimeSig:mean 	1.4
scalar Network.dyn_peer[364] 	lookupStabilitySig:mean 	0.36178419739008
scalar Network.dyn_peer[364] 	lookupHopsSig:mean 	13.25
scalar Network.dyn_peer[365] 	lookupTimeSig:mean 	2.3666666666667
scalar Network.dyn_peer[365] 	lookupStabilitySig:mean 	0.64790400365988
scalar Network.dyn_peer[365] 	lookupHopsSig:mean 	23
scalar Network.dyn_peer[366] 	lookupTimeSig:mean 	3.5333333333333
scalar Network.dyn_peer[366] 	lookupStabilitySig:mean 	0.54719708859921
scalar Network.dyn_peer[366] 	lookupHopsSig:mean 	34.666666666667
scalar Network.dyn_peer[367] 	lookupTimeSig:mean 	1.8
scalar Network.dyn_peer[367] 	lookupStabilitySig:mean 	0.69835816447934
scalar Network.dyn_peer[367] 	lookupHopsSig:mean 	17.333333333333
scalar Network.dyn_peer[368] 	lookupTimeSig:mean 	1.04
scalar Network.dyn_peer[368] 	lookupStabilitySig:mean 	0.45521381795406
scalar Network.dyn_peer[368] 	lookupHopsSig:mean 	9.6
scalar Network.dyn_peer[369] 	lookupTimeSig:mean 	1.64
scalar Network.dyn_peer[369] 	lookupStabilitySig:mean 	0.91945793508785
scalar Network.dyn_peer[369] 	lookupHopsSig:mean 	15.5
scalar Network.dyn_peer[370] 	lookupTimeSig:mean 	1.7666666666667
scalar Network.dyn_peer[370] 	lookupStabilitySig:mean 	0.87259729672223
scalar Network.dyn_peer[370] 	lookupHopsSig:mean 	16.833333333333
scalar Network.dyn_peer[371] 	lookupTimeSig:mean 	2.38
scalar Network.dyn_peer[371] 	lookupStabilitySig:mean 	0.87169702388346
scalar Network.dyn_peer[371] 	lookupHopsSig:mean 	23
scalar Network.dyn_peer[372] 	lookupTimeSig:mean 	1.9588235294118
scalar Network.dyn_peer[372] 	lookupStabilitySig:mean 	0.93472490555552
scalar Network.dyn_peer[372] 	lookupHopsSig:mean 	18.647058823529
scalar Network.dyn_peer[373] 	lookupTimeSig:mean 	2.7
scalar Network.dyn_peer[373] 	lookupStabilitySig:mean 	0.41656363755465
scalar Network.dyn_peer[373] 	lookupHopsSig:mean 	26.333333333333
scalar Network.dyn_peer[374] 	lookupTimeSig:mean 	1.975
scalar Network.dyn_peer[374] 	lookupStabilitySig:mean 	0.37114872410893
scalar Network.dyn_peer[374] 	lookupHopsSig:mean 	19
scalar Network.dyn_peer[375] 	lookupTimeSig:mean 	2.1
scalar Network.dyn_peer[375] 	lookupStabilitySig:mean 	0.90050882613286
scalar Network.dyn_peer[375] 	lookupHopsSig:mean 	20.111111111111
scalar Network.dyn_peer[376] 	lookupTimeSig:mean 	2.5666666666667
scalar Network.dyn_peer[376] 	lookupStabilitySig:mean 	0.84227340854704
scalar Network.dyn_peer[376] 	lookupHopsSig:mean 	25
scalar Network.dyn_peer[377] 	lookupTimeSig:mean 	4.95
scalar Network.dyn_peer[377] 	lookupStabilitySig:mean 	0.7899853810668
scalar Network.dyn_peer[377] 	lookupHopsSig:mean 	49
scalar Network.dyn_peer[378] 	lookupTimeSig:mean 	2.4
scalar Network.dyn_peer[378] 	lookupStabilitySig:mean 	0.7797266044654
scalar Network.dyn_peer[378] 	lookupHopsSig:mean 	23.25
scalar Network.dyn_peer[379] 	lookupTimeSig:mean 	3.02
scalar Network.dyn_peer[379] 	lookupStabilitySig:mean 	0.87124732807279
scalar Network.dyn_peer[379] 	lookupHopsSig:mean 	29.4
scalar Network.dyn_peer[380] 	lookupTimeSig:mean 	2.5285714285714
scalar Network.dyn_peer[380] 	lookupStabilitySig:mean 	0.81081663604294
scalar Network.dyn_peer[380] 	lookupHopsSig:mean 	24.428571428571
scalar Network.dyn_peer[381] 	lookupTimeSig:mean 	1.4
scalar Network.dyn_peer[381] 	lookupStabilitySig:mean 	0.79498786097975
scalar Network.dyn_peer[381] 	lookupHopsSig:mean 	13.125
scalar Network.dyn_peer[382] 	lookupTimeSig:mean 	1.9
scalar Network.dyn_peer[382] 	lookupStabilitySig:mean 	0.80597046087496
scalar Network.dyn_peer[382] 	lookupHopsSig:mean 	18.125
scalar Network.dyn_peer[383] 	lookupTimeSig:mean 	1.3333333333333
scalar Network.dyn_peer[383] 	lookupStabilitySig:mean 	0.37183131774267
scalar Network.dyn_peer[383] 	lookupHopsSig:mean 	12.666666666667
scalar Network.dyn_peer[384] 	lookupTimeSig:mean 	2.125
scalar Network.dyn_peer[384] 	lookupStabilitySig:mean 	0.72112991195172
scalar Network.dyn_peer[384] 	lookupHopsSig:mean 	20.5
scalar Network.dyn_peer[385] 	lookupTimeSig:mean 	2.85
scalar Network.dyn_peer[385] 	lookupStabilitySig:mean 	0.79464821051806
scalar Network.dyn_peer[385] 	lookupHopsSig:mean 	27.75
scalar Network.dyn_peer[386] 	lookupTimeSig:mean 	2.9714285714286
scalar Network.dyn_peer[386] 	lookupStabilitySig:mean 	0.91749197510736
scalar Network.dyn_peer[386] 	lookupHopsSig:mean 	28.857142857143
scalar Network.dyn_peer[387] 	lookupTimeSig:mean 	1.0166666666667
scalar Network.dyn_peer[387] 	lookupStabilitySig:mean 	0.55930953472853
scalar Network.dyn_peer[387] 	lookupHopsSig:mean 	9.3333333333333
scalar Network.dyn_peer[388] 	lookupTimeSig:mean 	0.8
scalar Network.dyn_peer[388] 	lookupStabilitySig:mean 	0.54297385811806
scalar Network.dyn_peer[388] 	lookupHopsSig:mean 	7.2
scalar Network.dyn_peer[389] 	lookupTimeSig:mean 	1.825
scalar Network.dyn_peer[389] 	lookupStabilitySig:mean 	0.54958234797232
scalar Network.dyn_peer[389] 	lookupHopsSig:mean 	17.5
scalar Network.dyn_peer[390] 	lookupTimeSig:mean 	2.1666666666667
scalar Network.dyn_peer[390] 	lookupStabilitySig:mean 	0.49408046031992
scalar Network.dyn_peer[390] 	lookupHopsSig:mean 	21
scalar Network.dyn_peer[391] 	lookupTimeSig:mean 	2.18
scalar Network.dyn_peer[391] 	lookupStabilitySig:mean 	0.83768549896777
scalar Network.dyn_peer[391] 	lookupHopsSig:mean 	21
scalar Network.dyn_peer[392] 	lookupTimeSig:mean 	2.7
scalar Network.dyn_peer[392] 	lookupStabilitySig:mean 	0.42630812277397
scalar Network.dyn_peer[392] 	lookupHopsSig:mean 	26.333333333333
scalar Network.dyn_peer[393] 	lookupTimeSig:mean 	2.5538461538462
scalar Network.dyn_peer[393] 	lookupStabilitySig:mean 	0.96325904460481
scalar Network.dyn_peer[393] 	lookupHopsSig:mean 	24.615384615385
scalar Network.dyn_peer[394] 	lookupTimeSig:mean 	2.9538461538462
scalar Network.dyn_peer[394] 	lookupStabilitySig:mean 	0.94832876174209
scalar Network.dyn_peer[394] 	lookupHopsSig:mean 	28.615384615385
scalar Network.dyn_peer[395] 	lookupTimeSig:mean 	1.2909090909091
scalar Network.dyn_peer[395] 	lookupStabilitySig:mean 	0.79478600589474
scalar Network.dyn_peer[395] 	lookupHopsSig:mean 	12
scalar Network.dyn_peer[396] 	lookupTimeSig:mean 	1.6333333333333
scalar Network.dyn_peer[396] 	lookupStabilitySig:mean 	0.53060773635904
scalar Network.dyn_peer[396] 	lookupHopsSig:mean 	15.5
scalar Network.dyn_peer[397] 	lookupTimeSig:mean 	1.9285714285714
scalar Network.dyn_peer[397] 	lookupStabilitySig:mean 	0.82060110540728
scalar Network.dyn_peer[397] 	lookupHopsSig:mean 	18.357142857143
scalar Network.dyn_peer[398] 	lookupTimeSig:mean 	2.32
scalar Network.dyn_peer[398] 	lookupStabilitySig:mean 	0.86661721765995
scalar Network.dyn_peer[398] 	lookupHopsSig:mean 	22.4
scalar Network.dyn_peer[399] 	lookupTimeSig:mean 	3.4666666666667
scalar Network.dyn_peer[399] 	lookupStabilitySig:mean 	0.84601769968867
scalar Network.dyn_peer[399] 	lookupHopsSig:mean 	34
scalar Network.dyn_peer[400] 	lookupTimeSig:mean 	2.45
scalar Network.dyn_peer[400] 	lookupStabilitySig:mean 	0.88475283491425
scalar Network.dyn_peer[400] 	lookupHopsSig:mean 	23.75
scalar Network.dyn_peer[401] 	lookupTimeSig:mean 	4.08
scalar Network.dyn_peer[401] 	lookupStabilitySig:mean 	0.72811431735754
scalar Network.dyn_peer[401] 	lookupHopsSig:mean 	40
scalar Network.dyn_peer[402] 	lookupTimeSig:mean 	2.5333333333333
scalar Network.dyn_peer[402] 	lookupStabilitySig:mean 	0.65704433992505
scalar Network.dyn_peer[402] 	lookupHopsSig:mean 	24.666666666667
scalar Network.dyn_peer[403] 	lookupTimeSig:mean 	2.1222222222222
scalar Network.dyn_peer[403] 	lookupStabilitySig:mean 	0.76500297875868
scalar Network.dyn_peer[403] 	lookupHopsSig:mean 	20.333333333333
scalar Network.dyn_peer[404] 	lookupTimeSig:mean 	2.35
scalar Network.dyn_peer[404] 	lookupStabilitySig:mean 	0.91120926694324
scalar Network.dyn_peer[404] 	lookupHopsSig:mean 	22.666666666667
scalar Network.dyn_peer[405] 	lookupTimeSig:mean 	2.2428571428571
scalar Network.dyn_peer[405] 	lookupStabilitySig:mean 	0.72671587472515
scalar Network.dyn_peer[405] 	lookupHopsSig:mean 	21.571428571429
scalar Network.dyn_peer[406] 	lookupTimeSig:mean 	1.5333333333333
scalar Network.dyn_peer[406] 	lookupStabilitySig:mean 	0.64433311127747
scalar Network.dyn_peer[406] 	lookupHopsSig:mean 	14.5
scalar Network.dyn_peer[407] 	lookupTimeSig:mean 	2.58
scalar Network.dyn_peer[407] 	lookupStabilitySig:mean 	0.88612473122776
scalar Network.dyn_peer[407] 	lookupHopsSig:mean 	25
scalar Network.dyn_peer[408] 	lookupTimeSig:mean 	1.9714285714286
scalar Network.dyn_peer[408] 	lookupStabilitySig:mean 	0.913098402787
scalar Network.dyn_peer[408] 	lookupHopsSig:mean 	18.857142857143
scalar Network.dyn_peer[409] 	lookupTimeSig:mean 	1.7125
scalar Network.dyn_peer[409] 	lookupStabilitySig:mean 	0.90455247368664
scalar Network.dyn_peer[409] 	lookupHopsSig:mean 	16.25
scalar Network.dyn_peer[410] 	lookupTimeSig:mean 	1.44
scalar Network.dyn_peer[410] 	lookupStabilitySig:mean 	0.38938460946083
scalar Network.dyn_peer[410] 	lookupHopsSig:mean 	13.6
scalar Network.dyn_peer[411] 	lookupTimeSig:mean 	2.65
scalar Network.dyn_peer[411] 	lookupStabilitySig:mean 	-0.068859174847603
scalar Network.dyn_peer[411] 	lookupHopsSig:mean 	26
scalar Network.dyn_peer[412] 	lookupTimeSig:mean 	2.7333333333333
scalar Network.dyn_peer[412] 	lookupStabilitySig:mean 	0.29761525243521
scalar Network.dyn_peer[412] 	lookupHopsSig:mean 	26.666666666667
scalar Network.dyn_peer[413] 	lookupTimeSig:mean 	2.9666666666667
scalar Network.dyn_peer[413] 	lookupStabilitySig:mean 	0.47992965625599
scalar Network.dyn_peer[413] 	lookupHopsSig:mean 	29
scalar Network.dyn_peer[414] 	lookupTimeSig:mean 	1.6875
scalar Network.dyn_peer[414] 	lookupStabilitySig:mean 	0.91603669186588
scalar Network.dyn_peer[414] 	lookupHopsSig:mean 	16
scalar Network.dyn_peer[415] 	lookupTimeSig:mean 	3.1
scalar Network.dyn_peer[415] 	lookupStabilitySig:mean 	0.7583307630072
scalar Network.dyn_peer[415] 	lookupHopsSig:mean 	30.333333333333
scalar Network.dyn_peer[416] 	lookupTimeSig:mean 	2.2285714285714
scalar Network.dyn_peer[416] 	lookupStabilitySig:mean 	0.94598680814462
scalar Network.dyn_peer[416] 	lookupHopsSig:mean 	21.428571428571
scalar Network.dyn_peer[417] 	lookupTimeSig:mean 	1.74
scalar Network.dyn_peer[417] 	lookupStabilitySig:mean 	0.86966900816187
scalar Network.dyn_peer[417] 	lookupHopsSig:mean 	16.5
scalar Network.dyn_peer[418] 	lookupTimeSig:mean 	1.9571428571429
scalar Network.dyn_peer[418] 	lookupStabilitySig:mean 	0.88231334010405
scalar Network.dyn_peer[418] 	lookupHopsSig:mean 	18.714285714286
scalar Network.dyn_peer[419] 	lookupTimeSig:mean 	3.35
scalar Network.dyn_peer[419] 	lookupStabilitySig:mean 	0.79266195961585
[...]
scalar Network.dyn_peer[895] 	lookupHopsSig:mean 	24.583333333333
scalar Network.dyn_peer[896] 	lookupTimeSig:mean 	1.47
scalar Network.dyn_peer[896] 	lookupStabilitySig:mean 	0.88109992174432
scalar Network.dyn_peer[896] 	lookupHopsSig:mean 	13.8
scalar Network.dyn_peer[897] 	lookupTimeSig:mean 	1.4888888888889
scalar Network.dyn_peer[897] 	lookupStabilitySig:mean 	0.92803072510287
scalar Network.dyn_peer[897] 	lookupHopsSig:mean 	14
scalar Network.dyn_peer[898] 	lookupTimeSig:mean 	1.4363636363636
scalar Network.dyn_peer[898] 	lookupStabilitySig:mean 	0.8540897987021
scalar Network.dyn_peer[898] 	lookupHopsSig:mean 	13.454545454545
scalar Network.dyn_peer[899] 	lookupTimeSig:mean 	2.7
scalar Network.dyn_peer[899] 	lookupStabilitySig:mean 	0.8966051466763
scalar Network.dyn_peer[899] 	lookupHopsSig:mean 	26.2
scalar Network.dyn_peer[900] 	lookupTimeSig:mean 	2.1166666666667
scalar Network.dyn_peer[900] 	lookupStabilitySig:mean 	0.94342992237459
scalar Network.dyn_peer[900] 	lookupHopsSig:mean 	20.333333333333
scalar Network.dyn_peer[901] 	lookupTimeSig:mean 	1.9222222222222
scalar Network.dyn_peer[901] 	lookupStabilitySig:mean 	0.93817040241427
scalar Network.dyn_peer[901] 	lookupHopsSig:mean 	18.333333333333
scalar Network.dyn_peer[902] 	lookupTimeSig:mean 	2.3
scalar Network.dyn_peer[902] 	lookupStabilitySig:mean 	0.33881426602602
scalar Network.dyn_peer[902] 	lookupHopsSig:mean 	22.5
scalar Network.dyn_peer[903] 	lookupTimeSig:mean 	2.25
scalar Network.dyn_peer[903] 	lookupStabilitySig:mean 	0.49395203590393
scalar Network.dyn_peer[903] 	lookupHopsSig:mean 	21.75
scalar Network.dyn_peer[904] 	lookupTimeSig:mean 	1.4545454545455
scalar Network.dyn_peer[904] 	lookupStabilitySig:mean 	0.85582948294045
scalar Network.dyn_peer[904] 	lookupHopsSig:mean 	13.636363636364
scalar Network.dyn_peer[905] 	lookupTimeSig:mean 	1.7
scalar Network.dyn_peer[905] 	lookupStabilitySig:mean 	0.6373190516606
scalar Network.dyn_peer[905] 	lookupHopsSig:mean 	16.25
scalar Network.dyn_peer[906] 	lookupTimeSig:mean 	3.2333333333333
scalar Network.dyn_peer[906] 	lookupStabilitySig:mean 	0.93842197302729
scalar Network.dyn_peer[906] 	lookupHopsSig:mean 	31.5
scalar Network.dyn_peer[907] 	lookupTimeSig:mean 	1.29
scalar Network.dyn_peer[907] 	lookupStabilitySig:mean 	0.82098408206366
scalar Network.dyn_peer[907] 	lookupHopsSig:mean 	12
scalar Network.dyn_peer[908] 	lookupTimeSig:mean 	2.2
scalar Network.dyn_peer[908] 	lookupStabilitySig:mean 	0.95095604757911
scalar Network.dyn_peer[908] 	lookupHopsSig:mean 	21.142857142857
scalar Network.dyn_peer[909] 	lookupTimeSig:mean 	1.175
scalar Network.dyn_peer[909] 	lookupStabilitySig:mean 	0.4559837244451
scalar Network.dyn_peer[909] 	lookupHopsSig:mean 	11
scalar Network.dyn_peer[910] 	lookupTimeSig:mean 	1.5272727272727
scalar Network.dyn_peer[910] 	lookupStabilitySig:mean 	0.79191305793144
scalar Network.dyn_peer[910] 	lookupHopsSig:mean 	14.363636363636
scalar Network.dyn_peer[911] 	lookupTimeSig:mean 	3.15
scalar Network.dyn_peer[911] 	lookupStabilitySig:mean 	0.95065272552893
scalar Network.dyn_peer[911] 	lookupHopsSig:mean 	30.666666666667
scalar Network.dyn_peer[912] 	lookupTimeSig:mean 	1.6416666666667
scalar Network.dyn_peer[912] 	lookupStabilitySig:mean 	0.8397549597236
scalar Network.dyn_peer[912] 	lookupHopsSig:mean 	15.5
scalar Network.dyn_peer[913] 	lookupTimeSig:mean 	0.6
scalar Network.dyn_peer[913] 	lookupStabilitySig:mean 	0.7912763270239
scalar Network.dyn_peer[913] 	lookupHopsSig:mean 	5.1666666666667
scalar Network.dyn_peer[914] 	lookupTimeSig:mean 	1.8
scalar Network.dyn_peer[914] 	lookupStabilitySig:mean 	0.57724159657955
scalar Network.dyn_peer[914] 	lookupHopsSig:mean 	17.2
scalar Network.dyn_peer[915] 	lookupTimeSig:mean 	1.5
scalar Network.dyn_peer[915] 	lookupStabilitySig:mean 	0.55172084830701
scalar Network.dyn_peer[915] 	lookupHopsSig:mean 	14.25
scalar Network.dyn_peer[916] 	lookupTimeSig:mean 	1.6
scalar Network.dyn_peer[916] 	lookupStabilitySig:mean 	0.70600324869156
scalar Network.dyn_peer[916] 	lookupHopsSig:mean 	15.333333333333
scalar Network.dyn_peer[917] 	lookupTimeSig:mean 	1.2428571428571
scalar Network.dyn_peer[917] 	lookupStabilitySig:mean 	0.74964767461643
scalar Network.dyn_peer[917] 	lookupHopsSig:mean 	11.571428571429
scalar Network.dyn_peer[918] 	lookupTimeSig:mean 	2.6625
scalar Network.dyn_peer[918] 	lookupStabilitySig:mean 	0.95316820807057
scalar Network.dyn_peer[918] 	lookupHopsSig:mean 	25.75
scalar Network.dyn_peer[919] 	lookupTimeSig:mean 	1.8785714285714
scalar Network.dyn_peer[919] 	lookupStabilitySig:mean 	0.88449046930431
scalar Network.dyn_peer[919] 	lookupHopsSig:mean 	17.857142857143
scalar Network.dyn_peer[920] 	lookupTimeSig:mean 	1.8777777777778
scalar Network.dyn_peer[920] 	lookupStabilitySig:mean 	0.93846394100951
scalar Network.dyn_peer[920] 	lookupHopsSig:mean 	17.888888888889
scalar Network.dyn_peer[921] 	lookupTimeSig:mean 	2.8333333333333
scalar Network.dyn_peer[921] 	lookupStabilitySig:mean 	0.69199835509062
scalar Network.dyn_peer[921] 	lookupHopsSig:mean 	27.666666666667
scalar Network.dyn_peer[922] 	lookupTimeSig:mean 	2.08
scalar Network.dyn_peer[922] 	lookupStabilitySig:mean 	0.88970373719931
scalar Network.dyn_peer[922] 	lookupHopsSig:mean 	19.9
scalar Network.dyn_peer[923] 	lookupTimeSig:mean 	1.8142857142857
scalar Network.dyn_peer[923] 	lookupStabilitySig:mean 	0.93741828775299
scalar Network.dyn_peer[923] 	lookupHopsSig:mean 	17.285714285714
scalar Network.dyn_peer[924] 	lookupTimeSig:mean 	2.0125
scalar Network.dyn_peer[924] 	lookupStabilitySig:mean 	0.95159895473626
scalar Network.dyn_peer[924] 	lookupHopsSig:mean 	19.25
scalar Network.dyn_peer[925] 	lookupTimeSig:mean 	2.7
scalar Network.dyn_peer[925] 	lookupStabilitySig:mean 	0.95320983656815
scalar Network.dyn_peer[925] 	lookupHopsSig:mean 	26.142857142857
scalar Network.dyn_peer[926] 	lookupTimeSig:mean 	0.78
scalar Network.dyn_peer[926] 	lookupStabilitySig:mean 	0.72342572063208
scalar Network.dyn_peer[926] 	lookupHopsSig:mean 	7
scalar Network.dyn_peer[927] 	lookupTimeSig:mean 	1.95
scalar Network.dyn_peer[927] 	lookupStabilitySig:mean 	0.85234416648746
scalar Network.dyn_peer[927] 	lookupHopsSig:mean 	18.666666666667
scalar Network.dyn_peer[928] 	lookupTimeSig:mean 	1.8181818181818
scalar Network.dyn_peer[928] 	lookupStabilitySig:mean 	0.92180119937455
scalar Network.dyn_peer[928] 	lookupHopsSig:mean 	17.272727272727
scalar Network.dyn_peer[929] 	lookupTimeSig:mean 	2.4666666666667
scalar Network.dyn_peer[929] 	lookupStabilitySig:mean 	0.93361067244162
scalar Network.dyn_peer[929] 	lookupHopsSig:mean 	23.833333333333
scalar Network.dyn_peer[930] 	lookupTimeSig:mean 	1.14
scalar Network.dyn_peer[930] 	lookupStabilitySig:mean 	0.69976683855057
scalar Network.dyn_peer[930] 	lookupHopsSig:mean 	10.6
scalar Network.dyn_peer[931] 	lookupTimeSig:mean 	1.5285714285714
scalar Network.dyn_peer[931] 	lookupStabilitySig:mean 	0.87092120320137
scalar Network.dyn_peer[931] 	lookupHopsSig:mean 	14.428571428571
scalar Network.dyn_peer[932] 	lookupTimeSig:mean 	1.44
scalar Network.dyn_peer[932] 	lookupStabilitySig:mean 	0.78765035569668
scalar Network.dyn_peer[932] 	lookupHopsSig:mean 	13.6
scalar Network.dyn_peer[933] 	lookupTimeSig:mean 	1.1
scalar Network.dyn_peer[933] 	lookupStabilitySig:mean 	0.55185334943235
scalar Network.dyn_peer[933] 	lookupHopsSig:mean 	10.25
scalar Network.dyn_peer[934] 	lookupTimeSig:mean 	2.0857142857143
scalar Network.dyn_peer[934] 	lookupStabilitySig:mean 	0.77228785066732
scalar Network.dyn_peer[934] 	lookupHopsSig:mean 	20
scalar Network.dyn_peer[935] 	lookupTimeSig:mean 	1.9
scalar Network.dyn_peer[935] 	lookupStabilitySig:mean 	0.83981718717971
scalar Network.dyn_peer[935] 	lookupHopsSig:mean 	18.111111111111
scalar Network.dyn_peer[936] 	lookupTimeSig:mean 	2.0666666666667
scalar Network.dyn_peer[936] 	lookupStabilitySig:mean 	0.93827720224443
scalar Network.dyn_peer[936] 	lookupHopsSig:mean 	19.777777777778
scalar Network.dyn_peer[937] 	lookupTimeSig:mean 	1.7166666666667
scalar Network.dyn_peer[937] 	lookupStabilitySig:mean 	0.88237698046335
scalar Network.dyn_peer[937] 	lookupHopsSig:mean 	16.25
scalar Network.dyn_peer[938] 	lookupTimeSig:mean 	1.8857142857143
scalar Network.dyn_peer[938] 	lookupStabilitySig:mean 	0.90698189700821
scalar Network.dyn_peer[938] 	lookupHopsSig:mean 	18
scalar Network.dyn_peer[939] 	lookupTimeSig:mean 	1.9666666666667
scalar Network.dyn_peer[939] 	lookupStabilitySig:mean 	0.92065047193319
scalar Network.dyn_peer[939] 	lookupHopsSig:mean 	18.833333333333
scalar Network.dyn_peer[940] 	lookupTimeSig:mean 	2.12
scalar Network.dyn_peer[940] 	lookupStabilitySig:mean 	0.87772320527583
scalar Network.dyn_peer[940] 	lookupHopsSig:mean 	20.4
scalar Network.dyn_peer[941] 	lookupTimeSig:mean 	2.1666666666667
scalar Network.dyn_peer[941] 	lookupStabilitySig:mean 	0.8203351367265
scalar Network.dyn_peer[941] 	lookupHopsSig:mean 	21
scalar Network.dyn_peer[942] 	lookupTimeSig:mean 	1.775
scalar Network.dyn_peer[942] 	lookupStabilitySig:mean 	0.65852462127805
scalar Network.dyn_peer[942] 	lookupHopsSig:mean 	17
scalar Network.dyn_peer[943] 	lookupTimeSig:mean 	1.78
scalar Network.dyn_peer[943] 	lookupStabilitySig:mean 	0.71819044575095
scalar Network.dyn_peer[943] 	lookupHopsSig:mean 	17
scalar Network.dyn_peer[944] 	lookupTimeSig:mean 	1.7
scalar Network.dyn_peer[944] 	lookupStabilitySig:mean 	0.77103531050185
scalar Network.dyn_peer[944] 	lookupHopsSig:mean 	16.333333333333
scalar Network.dyn_peer[945] 	lookupTimeSig:mean 	2.2111111111111
scalar Network.dyn_peer[945] 	lookupStabilitySig:mean 	0.96211858885363
scalar Network.dyn_peer[945] 	lookupHopsSig:mean 	21.222222222222
scalar Network.dyn_peer[946] 	lookupTimeSig:mean 	1.9555555555556
scalar Network.dyn_peer[946] 	lookupStabilitySig:mean 	0.82429992448952
scalar Network.dyn_peer[946] 	lookupHopsSig:mean 	18.666666666667
scalar Network.dyn_peer[947] 	lookupTimeSig:mean 	2.6
scalar Network.dyn_peer[947] 	lookupStabilitySig:mean 	0.78353821393102
scalar Network.dyn_peer[947] 	lookupHopsSig:mean 	25.25
scalar Network.dyn_peer[948] 	lookupTimeSig:mean 	1.7375
scalar Network.dyn_peer[948] 	lookupStabilitySig:mean 	0.94230409373995
scalar Network.dyn_peer[948] 	lookupHopsSig:mean 	16.5
scalar Network.dyn_peer[949] 	lookupTimeSig:mean 	2.75
scalar Network.dyn_peer[949] 	lookupStabilitySig:mean 	0.65860755741596
scalar Network.dyn_peer[949] 	lookupHopsSig:mean 	27
scalar Network.dyn_peer[950] 	lookupTimeSig:mean 	1.6333333333333
scalar Network.dyn_peer[950] 	lookupStabilitySig:mean 	0.59046898037195
scalar Network.dyn_peer[950] 	lookupHopsSig:mean 	15.666666666667
scalar Network.dyn_peer[951] 	lookupTimeSig:mean 	1.7875
scalar Network.dyn_peer[951] 	lookupStabilitySig:mean 	0.9349723753985
scalar Network.dyn_peer[951] 	lookupHopsSig:mean 	17
scalar Network.dyn_peer[952] 	lookupTimeSig:mean 	2.2
scalar Network.dyn_peer[952] 	lookupStabilitySig:mean 	0.94735501712421
scalar Network.dyn_peer[952] 	lookupHopsSig:mean 	21.125
scalar Network.dyn_peer[953] 	lookupTimeSig:mean 	2.38
scalar Network.dyn_peer[953] 	lookupStabilitySig:mean 	0.90330753773451
scalar Network.dyn_peer[953] 	lookupHopsSig:mean 	23
scalar Network.dyn_peer[954] 	lookupTimeSig:mean 	2.06
scalar Network.dyn_peer[954] 	lookupStabilitySig:mean 	0.67107937559485
scalar Network.dyn_peer[954] 	lookupHopsSig:mean 	19.8
scalar Network.dyn_peer[955] 	lookupTimeSig:mean 	1.5571428571429
scalar Network.dyn_peer[955] 	lookupStabilitySig:mean 	0.91120010507958
scalar Network.dyn_peer[955] 	lookupHopsSig:mean 	14.714285714286
scalar Network.dyn_peer[956] 	lookupTimeSig:mean 	1.7277777777778
scalar Network.dyn_peer[956] 	lookupStabilitySig:mean 	0.96658168552029
scalar Network.dyn_peer[956] 	lookupHopsSig:mean 	16.333333333333
scalar Network.dyn_peer[957] 	lookupTimeSig:mean 	1.125
scalar Network.dyn_peer[957] 	lookupStabilitySig:mean 	0.82832878828049
scalar Network.dyn_peer[957] 	lookupHopsSig:mean 	10.375
scalar Network.dyn_peer[958] 	lookupTimeSig:mean 	4.125
scalar Network.dyn_peer[958] 	lookupStabilitySig:mean 	0.70363216195256
scalar Network.dyn_peer[958] 	lookupHopsSig:mean 	40.5
scalar Network.dyn_peer[959] 	lookupTimeSig:mean 	1.575
scalar Network.dyn_peer[959] 	lookupStabilitySig:mean 	0.81451917090453
scalar Network.dyn_peer[959] 	lookupHopsSig:mean 	14.875
scalar Network.dyn_peer[960] 	lookupTimeSig:mean 	3.6333333333333
scalar Network.dyn_peer[960] 	lookupStabilitySig:mean 	0.78447256733974
scalar Network.dyn_peer[960] 	lookupHopsSig:mean 	35.666666666667
scalar Network.dyn_peer[961] 	lookupTimeSig:mean 	3.3333333333333
scalar Network.dyn_peer[961] 	lookupStabilitySig:mean 	0.8844956929485
scalar Network.dyn_peer[961] 	lookupHopsSig:mean 	32.666666666667
scalar Network.dyn_peer[962] 	lookupTimeSig:mean 	2.25
scalar Network.dyn_peer[962] 	lookupStabilitySig:mean 	0.88532058925678
scalar Network.dyn_peer[962] 	lookupHopsSig:mean 	21.666666666667
scalar Network.dyn_peer[963] 	lookupTimeSig:mean 	1.225
scalar Network.dyn_peer[963] 	lookupStabilitySig:mean 	0.77867228817195
scalar Network.dyn_peer[963] 	lookupHopsSig:mean 	11.5
scalar Network.dyn_peer[964] 	lookupTimeSig:mean 	1.375
scalar Network.dyn_peer[964] 	lookupStabilitySig:mean 	0.90176281880122
scalar Network.dyn_peer[964] 	lookupHopsSig:mean 	12.833333333333
scalar Network.dyn_peer[965] 	lookupTimeSig:mean 	1.65
scalar Network.dyn_peer[965] 	lookupStabilitySig:mean 	0.45754075050354
scalar Network.dyn_peer[965] 	lookupHopsSig:mean 	16
scalar Network.dyn_peer[966] 	lookupTimeSig:mean 	2.4
scalar Network.dyn_peer[966] 	lookupStabilitySig:mean 	0.5449342764914
scalar Network.dyn_peer[966] 	lookupHopsSig:mean 	23.25
scalar Network.dyn_peer[967] 	lookupTimeSig:mean 	2.0285714285714
scalar Network.dyn_peer[967] 	lookupStabilitySig:mean 	0.93866076400237
scalar Network.dyn_peer[967] 	lookupHopsSig:mean 	19.428571428571
scalar Network.dyn_peer[968] 	lookupTimeSig:mean 	2.3
scalar Network.dyn_peer[968] 	lookupStabilitySig:mean 	0.93722740374506
scalar Network.dyn_peer[968] 	lookupHopsSig:mean 	22.166666666667
scalar Network.dyn_peer[969] 	lookupTimeSig:mean 	1.5
scalar Network.dyn_peer[969] 	lookupStabilitySig:mean 	0.8232975717634
scalar Network.dyn_peer[969] 	lookupHopsSig:mean 	14.2
scalar Network.dyn_peer[970] 	lookupTimeSig:mean 	2.0888888888889
scalar Network.dyn_peer[970] 	lookupStabilitySig:mean 	0.9596133019206
scalar Network.dyn_peer[970] 	lookupHopsSig:mean 	20
scalar Network.dyn_peer[971] 	lookupTimeSig:mean 	2.15
scalar Network.dyn_peer[971] 	lookupStabilitySig:mean 	0.89578388351947
scalar Network.dyn_peer[971] 	lookupHopsSig:mean 	20.666666666667
scalar Network.dyn_peer[972] 	lookupTimeSig:mean 	1.35
scalar Network.dyn_peer[972] 	lookupStabilitySig:mean 	0.3384615033865
scalar Network.dyn_peer[972] 	lookupHopsSig:mean 	13
scalar Network.dyn_peer[973] 	lookupTimeSig:mean 	1.8857142857143
scalar Network.dyn_peer[973] 	lookupStabilitySig:mean 	0.89738875341469
scalar Network.dyn_peer[973] 	lookupHopsSig:mean 	18
scalar Network.dyn_peer[974] 	lookupTimeSig:mean 	2.1846153846154
scalar Network.dyn_peer[974] 	lookupStabilitySig:mean 	0.90186674742458
scalar Network.dyn_peer[974] 	lookupHopsSig:mean 	20.923076923077
scalar Network.dyn_peer[975] 	lookupTimeSig:mean 	2.525
scalar Network.dyn_peer[975] 	lookupStabilitySig:mean 	0.95795736388148
scalar Network.dyn_peer[975] 	lookupHopsSig:mean 	24.333333333333
scalar Network.dyn_peer[976] 	lookupTimeSig:mean 	1.3166666666667
scalar Network.dyn_peer[976] 	lookupStabilitySig:mean 	0.83216645444433
scalar Network.dyn_peer[976] 	lookupHopsSig:mean 	12.333333333333
scalar Network.dyn_peer[977] 	lookupTimeSig:mean 	1.2666666666667
scalar Network.dyn_peer[977] 	lookupStabilitySig:mean 	0.73446335922927
scalar Network.dyn_peer[977] 	lookupHopsSig:mean 	11.833333333333
scalar Network.dyn_peer[978] 	lookupTimeSig:mean 	1.4857142857143
scalar Network.dyn_peer[978] 	lookupStabilitySig:mean 	0.90256614251328
scalar Network.dyn_peer[978] 	lookupHopsSig:mean 	14
scalar Network.dyn_peer[979] 	lookupTimeSig:mean 	2.36
scalar Network.dyn_peer[979] 	lookupStabilitySig:mean 	0.87171502839774
scalar Network.dyn_peer[979] 	lookupHopsSig:mean 	22.8
scalar Network.dyn_peer[980] 	lookupTimeSig:mean 	2.0375
scalar Network.dyn_peer[980] 	lookupStabilitySig:mean 	0.93556968122721
scalar Network.dyn_peer[980] 	lookupHopsSig:mean 	19.5
scalar Network.dyn_peer[981] 	lookupTimeSig:mean 	0.95
scalar Network.dyn_peer[981] 	lookupStabilitySig:mean 	0.58214286528528
scalar Network.dyn_peer[981] 	lookupHopsSig:mean 	8.75
scalar Network.dyn_peer[982] 	lookupTimeSig:mean 	2.6666666666667
scalar Network.dyn_peer[982] 	lookupStabilitySig:mean 	0.68646199877063
scalar Network.dyn_peer[982] 	lookupHopsSig:mean 	26
scalar Network.dyn_peer[983] 	lookupTimeSig:mean 	2.975
scalar Network.dyn_peer[983] 	lookupStabilitySig:mean 	0.70423235557973
scalar Network.dyn_peer[983] 	lookupHopsSig:mean 	29
scalar Network.dyn_peer[984] 	lookupTimeSig:mean 	2.7714285714286
scalar Network.dyn_peer[984] 	lookupStabilitySig:mean 	0.93930166440883
scalar Network.dyn_peer[984] 	lookupHopsSig:mean 	26.857142857143
scalar Network.dyn_peer[985] 	lookupTimeSig:mean 	1.6416666666667
scalar Network.dyn_peer[985] 	lookupStabilitySig:mean 	0.96135423584686
scalar Network.dyn_peer[985] 	lookupHopsSig:mean 	15.5
scalar Network.dyn_peer[986] 	lookupTimeSig:mean 	1.45
scalar Network.dyn_peer[986] 	lookupStabilitySig:mean 	0.9153546331916
scalar Network.dyn_peer[986] 	lookupHopsSig:mean 	13.6
scalar Network.dyn_peer[987] 	lookupTimeSig:mean 	2.15
scalar Network.dyn_peer[987] 	lookupStabilitySig:mean 	0.6295447377488
scalar Network.dyn_peer[987] 	lookupHopsSig:mean 	20.75
scalar Network.dyn_peer[988] 	lookupTimeSig:mean 	3.1
scalar Network.dyn_peer[988] 	lookupStabilitySig:mean 	0.91928659332916
scalar Network.dyn_peer[988] 	lookupHopsSig:mean 	30.25
scalar Network.dyn_peer[989] 	lookupTimeSig:mean 	1.76
scalar Network.dyn_peer[989] 	lookupStabilitySig:mean 	0.76944253593683
scalar Network.dyn_peer[989] 	lookupHopsSig:mean 	16.8
scalar Network.dyn_peer[990] 	lookupTimeSig:mean 	1.62
scalar Network.dyn_peer[990] 	lookupStabilitySig:mean 	0.85186233615968
scalar Network.dyn_peer[990] 	lookupHopsSig:mean 	15.3
scalar Network.dyn_peer[991] 	lookupTimeSig:mean 	2.1666666666667
scalar Network.dyn_peer[991] 	lookupStabilitySig:mean 	0.92831565532833
scalar Network.dyn_peer[991] 	lookupHopsSig:mean 	20.833333333333
scalar Network.dyn_peer[992] 	lookupTimeSig:mean 	2.3285714285714
scalar Network.dyn_peer[992] 	lookupStabilitySig:mean 	0.93752914440951
scalar Network.dyn_peer[992] 	lookupHopsSig:mean 	22.428571428571
scalar Network.dyn_peer[993] 	lookupTimeSig:mean 	2
scalar Network.dyn_peer[993] 	lookupStabilitySig:mean 	0.9313643455389
scalar Network.dyn_peer[993] 	lookupHopsSig:mean 	19.125
scalar Network.dyn_peer[994] 	lookupTimeSig:mean 	1.6714285714286
scalar Network.dyn_peer[994] 	lookupStabilitySig:mean 	0.79178892368717
scalar Network.dyn_peer[994] 	lookupHopsSig:mean 	15.857142857143
scalar Network.dyn_peer[995] 	lookupTimeSig:mean 	1.4333333333333
scalar Network.dyn_peer[995] 	lookupStabilitySig:mean 	0.87475458705901
scalar Network.dyn_peer[995] 	lookupHopsSig:mean 	13.444444444444
scalar Network.dyn_peer[996] 	lookupTimeSig:mean 	2.5
scalar Network.dyn_peer[996] 	lookupStabilitySig:mean 	0.85518837161362
scalar Network.dyn_peer[996] 	lookupHopsSig:mean 	24.25
scalar Network.dyn_peer[997] 	lookupTimeSig:mean 	2.9666666666667
scalar Network.dyn_peer[997] 	lookupStabilitySig:mean 	0.47768864159783
scalar Network.dyn_peer[997] 	lookupHopsSig:mean 	29
scalar Network.dyn_peer[998] 	lookupTimeSig:mean 	1.9333333333333
scalar Network.dyn_peer[998] 	lookupStabilitySig:mean 	0.89729260653257
scalar Network.dyn_peer[998] 	lookupHopsSig:mean 	18.5
scalar Network.dyn_peer[999] 	lookupTimeSig:mean 	3
scalar Network.dyn_peer[999] 	lookupStabilitySig:mean 	0.87565224803984
scalar Network.dyn_peer[999] 	lookupHopsSig:mean 	29.2
scalar Network.churner 	inGoingSizeSig:mean 	498.59340659341
