version 2
run Stability2-311-20130526-00:54:50-26640
attr configname Stability2
attr datetime 20130526-00:54:50
attr experiment Stability2
attr inifile omnetpp.ini
attr iterationvars $0=1000
attr iterationvars2 "$0=1000, $repetition=11"
attr measurement $0=1000
attr network Network
attr processid 26640
attr repetition 11
attr replication #11
attr resultdir results
attr runnumber 311
attr seedset 311

scalar Network.dyn_peer[0] 	lookupTimeSig:mean 	2.0666666666667
scalar Network.dyn_peer[0] 	lookupStabilitySig:mean 	0.5821301198254
scalar Network.dyn_peer[0] 	lookupHopsSig:mean 	19.833333333333
scalar Network.dyn_peer[1] 	lookupTimeSig:mean 	3.425
scalar Network.dyn_peer[1] 	lookupStabilitySig:mean 	0.78543291985989
scalar Network.dyn_peer[1] 	lookupHopsSig:mean 	33.5
scalar Network.dyn_peer[2] 	lookupTimeSig:mean 	2.4
scalar Network.dyn_peer[2] 	lookupStabilitySig:mean 	0.18110660711924
scalar Network.dyn_peer[2] 	lookupHopsSig:mean 	23.333333333333
scalar Network.dyn_peer[3] 	lookupTimeSig:mean 	1.6111111111111
scalar Network.dyn_peer[3] 	lookupStabilitySig:mean 	0.76018884136445
scalar Network.dyn_peer[3] 	lookupHopsSig:mean 	15.222222222222
scalar Network.dyn_peer[4] 	lookupTimeSig:mean 	0.9
scalar Network.dyn_peer[4] 	lookupStabilitySig:mean 	0.3999999910593
scalar Network.dyn_peer[4] 	lookupHopsSig:mean 	8.3333333333333
scalar Network.dyn_peer[5] 	lookupTimeSig:mean 	1.35
scalar Network.dyn_peer[5] 	lookupStabilitySig:mean 	0.10210011340678
scalar Network.dyn_peer[5] 	lookupHopsSig:mean 	12.75
scalar Network.dyn_peer[6] 	lookupTimeSig:mean 	2.3
scalar Network.dyn_peer[6] 	lookupStabilitySig:mean 	0.8068844821925
scalar Network.dyn_peer[6] 	lookupHopsSig:mean 	22.166666666667
scalar Network.dyn_peer[7] 	lookupTimeSig:mean 	2.3
scalar Network.dyn_peer[7] 	lookupStabilitySig:mean 	-0.1875
scalar Network.dyn_peer[7] 	lookupHopsSig:mean 	22.5
scalar Network.dyn_peer[8] 	lookupTimeSig:mean 	1.7857142857143
scalar Network.dyn_peer[8] 	lookupStabilitySig:mean 	0.76092371929969
scalar Network.dyn_peer[8] 	lookupHopsSig:mean 	17
scalar Network.dyn_peer[9] 	lookupTimeSig:mean 	1.25
scalar Network.dyn_peer[9] 	lookupStabilitySig:mean 	0.56345714686904
scalar Network.dyn_peer[9] 	lookupHopsSig:mean 	11.625
scalar Network.dyn_peer[10] 	lookupTimeSig:mean 	1.9333333333333
scalar Network.dyn_peer[10] 	lookupStabilitySig:mean 	0.69373699308683
scalar Network.dyn_peer[10] 	lookupHopsSig:mean 	18.5
scalar Network.dyn_peer[11] 	lookupTimeSig:mean 	1.6666666666667
scalar Network.dyn_peer[11] 	lookupStabilitySig:mean 	0.55084242112935
scalar Network.dyn_peer[11] 	lookupHopsSig:mean 	15.833333333333
scalar Network.dyn_peer[12] 	lookupTimeSig:mean 	4.175
scalar Network.dyn_peer[12] 	lookupStabilitySig:mean 	0.7775234694127
scalar Network.dyn_peer[12] 	lookupHopsSig:mean 	41
scalar Network.dyn_peer[13] 	lookupTimeSig:mean 	1.325
scalar Network.dyn_peer[13] 	lookupStabilitySig:mean 	0.27990197017789
scalar Network.dyn_peer[13] 	lookupHopsSig:mean 	12.5
scalar Network.dyn_peer[14] 	lookupTimeSig:mean 	5.05
scalar Network.dyn_peer[14] 	lookupStabilitySig:mean 	0.78750000149012
scalar Network.dyn_peer[14] 	lookupHopsSig:mean 	50
scalar Network.dyn_peer[15] 	lookupTimeSig:mean 	2.4428571428571
scalar Network.dyn_peer[15] 	lookupStabilitySig:mean 	0.55283804264452
scalar Network.dyn_peer[15] 	lookupHopsSig:mean 	23.571428571429
scalar Network.dyn_peer[16] 	lookupTimeSig:mean 	3.35
scalar Network.dyn_peer[16] 	lookupStabilitySig:mean 	-0.14035087823868
scalar Network.dyn_peer[16] 	lookupHopsSig:mean 	33
scalar Network.dyn_peer[17] 	lookupTimeSig:mean 	5.05
scalar Network.dyn_peer[17] 	lookupStabilitySig:mean 	-0.097505666315556
scalar Network.dyn_peer[17] 	lookupHopsSig:mean 	50
scalar Network.dyn_peer[18] 	lookupTimeSig:mean 	2.4
scalar Network.dyn_peer[18] 	lookupStabilitySig:mean 	0.6051281914115
scalar Network.dyn_peer[18] 	lookupHopsSig:mean 	23.5
scalar Network.dyn_peer[19] 	lookupTimeSig:mean 	1.4666666666667
scalar Network.dyn_peer[19] 	lookupStabilitySig:mean 	0.20559443036715
scalar Network.dyn_peer[19] 	lookupHopsSig:mean 	14
scalar Network.dyn_peer[20] 	lookupTimeSig:mean 	1.8142857142857
scalar Network.dyn_peer[20] 	lookupStabilitySig:mean 	0.71898411320789
scalar Network.dyn_peer[20] 	lookupHopsSig:mean 	17.285714285714
scalar Network.dyn_peer[21] 	lookupTimeSig:mean 	1.8
scalar Network.dyn_peer[21] 	lookupStabilitySig:mean 	0.49276859015226
scalar Network.dyn_peer[21] 	lookupHopsSig:mean 	17.2
scalar Network.dyn_peer[22] 	lookupTimeSig:mean 	2.2
scalar Network.dyn_peer[22] 	lookupStabilitySig:mean 	0.35800718267759
scalar Network.dyn_peer[22] 	lookupHopsSig:mean 	21.333333333333
scalar Network.dyn_peer[23] 	lookupTimeSig:mean 	1.625
scalar Network.dyn_peer[23] 	lookupStabilitySig:mean 	0.32402352057397
scalar Network.dyn_peer[23] 	lookupHopsSig:mean 	15.5
scalar Network.dyn_peer[24] 	lookupTimeSig:mean 	1.4
scalar Network.dyn_peer[24] 	lookupStabilitySig:mean 	0.12612080015242
scalar Network.dyn_peer[24] 	lookupHopsSig:mean 	13.25
scalar Network.dyn_peer[25] 	lookupTimeSig:mean 	1.5272727272727
scalar Network.dyn_peer[25] 	lookupStabilitySig:mean 	0.89194765513424
scalar Network.dyn_peer[25] 	lookupHopsSig:mean 	14.363636363636
scalar Network.dyn_peer[26] 	lookupTimeSig:mean 	2.4
scalar Network.dyn_peer[26] 	lookupStabilitySig:mean 	0.83964045372392
scalar Network.dyn_peer[26] 	lookupHopsSig:mean 	23.142857142857
scalar Network.dyn_peer[27] 	lookupTimeSig:mean 	2.6285714285714
scalar Network.dyn_peer[27] 	lookupStabilitySig:mean 	0.88698181024353
scalar Network.dyn_peer[27] 	lookupHopsSig:mean 	25.428571428571
scalar Network.dyn_peer[28] 	lookupTimeSig:mean 	1.4
scalar Network.dyn_peer[28] 	lookupStabilitySig:mean 	0.15029760450125
scalar Network.dyn_peer[28] 	lookupHopsSig:mean 	13.25
scalar Network.dyn_peer[29] 	lookupTimeSig:mean 	2.0333333333333
scalar Network.dyn_peer[29] 	lookupStabilitySig:mean 	0.64355666205908
scalar Network.dyn_peer[29] 	lookupHopsSig:mean 	19.5
scalar Network.dyn_peer[30] 	lookupTimeSig:mean 	1.82
scalar Network.dyn_peer[30] 	lookupStabilitySig:mean 	0.76593538299203
scalar Network.dyn_peer[30] 	lookupHopsSig:mean 	17.4
scalar Network.dyn_peer[31] 	lookupTimeSig:mean 	1.9555555555556
scalar Network.dyn_peer[31] 	lookupStabilitySig:mean 	0.75374657158843
scalar Network.dyn_peer[31] 	lookupHopsSig:mean 	18.666666666667
scalar Network.dyn_peer[32] 	lookupTimeSig:mean 	1.7
scalar Network.dyn_peer[32] 	lookupStabilitySig:mean 	0.36666666530073
scalar Network.dyn_peer[32] 	lookupHopsSig:mean 	16.25
scalar Network.dyn_peer[33] 	lookupTimeSig:mean 	2.05
scalar Network.dyn_peer[33] 	lookupStabilitySig:mean 	0.93293018860277
scalar Network.dyn_peer[33] 	lookupHopsSig:mean 	19.625
scalar Network.dyn_peer[34] 	lookupTimeSig:mean 	2.0833333333333
scalar Network.dyn_peer[34] 	lookupStabilitySig:mean 	0.60451812002187
scalar Network.dyn_peer[34] 	lookupHopsSig:mean 	20
scalar Network.dyn_peer[35] 	lookupTimeSig:mean 	2.625
scalar Network.dyn_peer[35] 	lookupStabilitySig:mean 	0.56811451446265
scalar Network.dyn_peer[35] 	lookupHopsSig:mean 	25.5
scalar Network.dyn_peer[36] 	lookupTimeSig:mean 	3.85
scalar Network.dyn_peer[36] 	lookupStabilitySig:mean 	0.647107437253
scalar Network.dyn_peer[36] 	lookupHopsSig:mean 	38
scalar Network.dyn_peer[37] 	lookupTimeSig:mean 	2
scalar Network.dyn_peer[37] 	lookupStabilitySig:mean 	0.20203436662753
scalar Network.dyn_peer[37] 	lookupHopsSig:mean 	19.333333333333
scalar Network.dyn_peer[38] 	lookupTimeSig:mean 	1.125
scalar Network.dyn_peer[38] 	lookupStabilitySig:mean 	0.34325955808163
scalar Network.dyn_peer[38] 	lookupHopsSig:mean 	10.5
scalar Network.dyn_peer[39] 	lookupTimeSig:mean 	3.2666666666667
scalar Network.dyn_peer[39] 	lookupStabilitySig:mean 	0.7455269570152
scalar Network.dyn_peer[39] 	lookupHopsSig:mean 	32
scalar Network.dyn_peer[40] 	lookupTimeSig:mean 	1.94
scalar Network.dyn_peer[40] 	lookupStabilitySig:mean 	0.69658124567941
scalar Network.dyn_peer[40] 	lookupHopsSig:mean 	18.6
scalar Network.dyn_peer[41] 	lookupTimeSig:mean 	1.4333333333333
scalar Network.dyn_peer[41] 	lookupStabilitySig:mean 	0.28633878628413
scalar Network.dyn_peer[41] 	lookupHopsSig:mean 	13.666666666667
scalar Network.dyn_peer[42] 	lookupTimeSig:mean 	1.58
scalar Network.dyn_peer[42] 	lookupStabilitySig:mean 	0.70529765961692
scalar Network.dyn_peer[42] 	lookupHopsSig:mean 	14.9
scalar Network.dyn_peer[43] 	lookupTimeSig:mean 	2.575
scalar Network.dyn_peer[43] 	lookupStabilitySig:mean 	0.40954644046724
scalar Network.dyn_peer[43] 	lookupHopsSig:mean 	25
scalar Network.dyn_peer[44] 	lookupTimeSig:mean 	5.75
scalar Network.dyn_peer[44] 	lookupStabilitySig:mean 	-0.1950184777379
scalar Network.dyn_peer[44] 	lookupHopsSig:mean 	57
scalar Network.dyn_peer[45] 	lookupTimeSig:mean 	2.15
scalar Network.dyn_peer[45] 	lookupStabilitySig:mean 	0.74672416690737
scalar Network.dyn_peer[45] 	lookupHopsSig:mean 	20.666666666667
scalar Network.dyn_peer[46] 	lookupTimeSig:mean 	1.4666666666667
scalar Network.dyn_peer[46] 	lookupStabilitySig:mean 	0.17171714703242
scalar Network.dyn_peer[46] 	lookupHopsSig:mean 	14
scalar Network.dyn_peer[47] 	lookupTimeSig:mean 	1.05
scalar Network.dyn_peer[47] 	lookupStabilitySig:mean 	0.60904139047489
scalar Network.dyn_peer[47] 	lookupHopsSig:mean 	9.625
scalar Network.dyn_peer[48] 	lookupTimeSig:mean 	1.9
scalar Network.dyn_peer[48] 	lookupStabilitySig:mean 	0.42856364995241
scalar Network.dyn_peer[48] 	lookupHopsSig:mean 	18.2
scalar Network.dyn_peer[49] 	lookupTimeSig:mean 	1.15
scalar Network.dyn_peer[49] 	lookupStabilitySig:mean 	0.5022480674088
scalar Network.dyn_peer[49] 	lookupHopsSig:mean 	10.75
scalar Network.dyn_peer[50] 	lookupTimeSig:mean 	2.08
scalar Network.dyn_peer[50] 	lookupStabilitySig:mean 	0.75240322723985
scalar Network.dyn_peer[50] 	lookupHopsSig:mean 	20
scalar Network.dyn_peer[51] 	lookupTimeSig:mean 	0.84285714285714
scalar Network.dyn_peer[51] 	lookupStabilitySig:mean 	0.62307856790721
scalar Network.dyn_peer[51] 	lookupHopsSig:mean 	7.5714285714286
scalar Network.dyn_peer[52] 	lookupTimeSig:mean 	1.375
scalar Network.dyn_peer[52] 	lookupStabilitySig:mean 	0.30707633495331
scalar Network.dyn_peer[52] 	lookupHopsSig:mean 	13
scalar Network.dyn_peer[53] 	lookupTimeSig:mean 	2
scalar Network.dyn_peer[53] 	lookupStabilitySig:mean 	0.43372036702931
scalar Network.dyn_peer[53] 	lookupHopsSig:mean 	19.2
scalar Network.dyn_peer[54] 	lookupTimeSig:mean 	3.12
scalar Network.dyn_peer[54] 	lookupStabilitySig:mean 	0.762540275231
scalar Network.dyn_peer[54] 	lookupHopsSig:mean 	30.4
scalar Network.dyn_peer[55] 	lookupTimeSig:mean 	1.3571428571429
scalar Network.dyn_peer[55] 	lookupStabilitySig:mean 	0.55751820627068
scalar Network.dyn_peer[55] 	lookupHopsSig:mean 	12.714285714286
scalar Network.dyn_peer[56] 	lookupTimeSig:mean 	1.9222222222222
scalar Network.dyn_peer[56] 	lookupStabilitySig:mean 	0.88942445690433
scalar Network.dyn_peer[56] 	lookupHopsSig:mean 	18.333333333333
scalar Network.dyn_peer[57] 	lookupTimeSig:mean 	1.55
scalar Network.dyn_peer[57] 	lookupStabilitySig:mean 	0.56908847143253
scalar Network.dyn_peer[57] 	lookupHopsSig:mean 	14.666666666667
scalar Network.dyn_peer[58] 	lookupTimeSig:mean 	2.3
scalar Network.dyn_peer[58] 	lookupStabilitySig:mean 	0.88414982483456
scalar Network.dyn_peer[58] 	lookupHopsSig:mean 	22.142857142857
scalar Network.dyn_peer[59] 	lookupTimeSig:mean 	1.9461538461538
scalar Network.dyn_peer[59] 	lookupStabilitySig:mean 	0.91030672421822
scalar Network.dyn_peer[59] 	lookupHopsSig:mean 	18.538461538462
scalar Network.dyn_peer[60] 	lookupTimeSig:mean 	2.5714285714286
scalar Network.dyn_peer[60] 	lookupStabilitySig:mean 	0.90924180644963
scalar Network.dyn_peer[60] 	lookupHopsSig:mean 	24.857142857143
scalar Network.dyn_peer[61] 	lookupTimeSig:mean 	1.8545454545455
scalar Network.dyn_peer[61] 	lookupStabilitySig:mean 	0.94020399692553
scalar Network.dyn_peer[61] 	lookupHopsSig:mean 	17.636363636364
scalar Network.dyn_peer[62] 	lookupTimeSig:mean 	2.325
scalar Network.dyn_peer[62] 	lookupStabilitySig:mean 	0.87613150291145
scalar Network.dyn_peer[62] 	lookupHopsSig:mean 	22.5
scalar Network.dyn_peer[63] 	lookupTimeSig:mean 	4.9
scalar Network.dyn_peer[63] 	lookupStabilitySig:mean 	0.88369304686785
scalar Network.dyn_peer[63] 	lookupHopsSig:mean 	48.5
scalar Network.dyn_peer[64] 	lookupTimeSig:mean 	1.475
scalar Network.dyn_peer[64] 	lookupStabilitySig:mean 	0.27383591234684
scalar Network.dyn_peer[64] 	lookupHopsSig:mean 	14
scalar Network.dyn_peer[65] 	lookupTimeSig:mean 	2.725
scalar Network.dyn_peer[65] 	lookupStabilitySig:mean 	0.38575327023864
scalar Network.dyn_peer[65] 	lookupHopsSig:mean 	26.5
scalar Network.dyn_peer[66] 	lookupTimeSig:mean 	1.4
scalar Network.dyn_peer[66] 	lookupStabilitySig:mean 	0.62935259961523
scalar Network.dyn_peer[66] 	lookupHopsSig:mean 	13.125
scalar Network.dyn_peer[67] 	lookupTimeSig:mean 	1.59
scalar Network.dyn_peer[67] 	lookupStabilitySig:mean 	0.93203310151584
scalar Network.dyn_peer[67] 	lookupHopsSig:mean 	15
scalar Network.dyn_peer[68] 	lookupTimeSig:mean 	1.5454545454545
scalar Network.dyn_peer[68] 	lookupStabilitySig:mean 	0.92129892085425
scalar Network.dyn_peer[68] 	lookupHopsSig:mean 	14.545454545455
scalar Network.dyn_peer[69] 	lookupTimeSig:mean 	3.35
scalar Network.dyn_peer[69] 	lookupStabilitySig:mean 	-0.15909090638161
scalar Network.dyn_peer[69] 	lookupHopsSig:mean 	33
scalar Network.dyn_peer[70] 	lookupTimeSig:mean 	2.06
scalar Network.dyn_peer[70] 	lookupStabilitySig:mean 	0.41441912353039
scalar Network.dyn_peer[70] 	lookupHopsSig:mean 	19.8
scalar Network.dyn_peer[71] 	lookupTimeSig:mean 	1.775
scalar Network.dyn_peer[71] 	lookupStabilitySig:mean 	0.48495646379888
scalar Network.dyn_peer[71] 	lookupHopsSig:mean 	17
scalar Network.dyn_peer[72] 	lookupTimeSig:mean 	1.4571428571429
scalar Network.dyn_peer[72] 	lookupStabilitySig:mean 	0.61017416417599
scalar Network.dyn_peer[72] 	lookupHopsSig:mean 	13.714285714286
scalar Network.dyn_peer[73] 	lookupTimeSig:mean 	1.4
scalar Network.dyn_peer[73] 	lookupStabilitySig:mean 	0.55176968810459
scalar Network.dyn_peer[73] 	lookupHopsSig:mean 	13.166666666667
scalar Network.dyn_peer[74] 	lookupTimeSig:mean 	1
scalar Network.dyn_peer[74] 	lookupStabilitySig:mean 	0.41298699751496
scalar Network.dyn_peer[74] 	lookupHopsSig:mean 	9.25
scalar Network.dyn_peer[75] 	lookupTimeSig:mean 	1.7133333333333
scalar Network.dyn_peer[75] 	lookupStabilitySig:mean 	0.96116861818979
scalar Network.dyn_peer[75] 	lookupHopsSig:mean 	16.2
scalar Network.dyn_peer[76] 	lookupTimeSig:mean 	1.625
scalar Network.dyn_peer[76] 	lookupStabilitySig:mean 	0.32749765738845
scalar Network.dyn_peer[76] 	lookupHopsSig:mean 	15.5
scalar Network.dyn_peer[77] 	lookupTimeSig:mean 	2.53
scalar Network.dyn_peer[77] 	lookupStabilitySig:mean 	0.95208100536838
scalar Network.dyn_peer[77] 	lookupHopsSig:mean 	24.4
scalar Network.dyn_peer[78] 	lookupTimeSig:mean 	2.0333333333333
scalar Network.dyn_peer[78] 	lookupStabilitySig:mean 	0.56124688498676
scalar Network.dyn_peer[78] 	lookupHopsSig:mean 	19.5
scalar Network.dyn_peer[79] 	lookupTimeSig:mean 	2.65
scalar Network.dyn_peer[79] 	lookupStabilitySig:mean 	0.84422626160085
scalar Network.dyn_peer[79] 	lookupHopsSig:mean 	25.75
scalar Network.dyn_peer[80] 	lookupTimeSig:mean 	1.62
scalar Network.dyn_peer[80] 	lookupStabilitySig:mean 	0.89912022002973
scalar Network.dyn_peer[80] 	lookupHopsSig:mean 	15.3
scalar Network.dyn_peer[81] 	lookupTimeSig:mean 	1.5
scalar Network.dyn_peer[81] 	lookupStabilitySig:mean 	0.81005248924096
scalar Network.dyn_peer[81] 	lookupHopsSig:mean 	14.111111111111
scalar Network.dyn_peer[82] 	lookupTimeSig:mean 	3.6666666666667
scalar Network.dyn_peer[82] 	lookupStabilitySig:mean 	0.83550751954317
scalar Network.dyn_peer[82] 	lookupHopsSig:mean 	36
scalar Network.dyn_peer[83] 	lookupTimeSig:mean 	1.52
scalar Network.dyn_peer[83] 	lookupStabilitySig:mean 	0.44122898876667
scalar Network.dyn_peer[83] 	lookupHopsSig:mean 	14.4
scalar Network.dyn_peer[84] 	lookupTimeSig:mean 	1.25
scalar Network.dyn_peer[84] 	lookupStabilitySig:mean 	0.62799200136214
scalar Network.dyn_peer[84] 	lookupHopsSig:mean 	11.625
scalar Network.dyn_peer[85] 	lookupTimeSig:mean 	2.8666666666667
scalar Network.dyn_peer[85] 	lookupStabilitySig:mean 	0.36591007808844
scalar Network.dyn_peer[85] 	lookupHopsSig:mean 	28
scalar Network.dyn_peer[86] 	lookupTimeSig:mean 	1.4384615384615
scalar Network.dyn_peer[86] 	lookupStabilitySig:mean 	0.8266573502109
scalar Network.dyn_peer[86] 	lookupHopsSig:mean 	13.461538461538
scalar Network.dyn_peer[87] 	lookupTimeSig:mean 	1.6666666666667
scalar Network.dyn_peer[87] 	lookupStabilitySig:mean 	0.54595123821249
scalar Network.dyn_peer[87] 	lookupHopsSig:mean 	15.833333333333
scalar Network.dyn_peer[88] 	lookupTimeSig:mean 	1.4
scalar Network.dyn_peer[88] 	lookupStabilitySig:mean 	0.12329437335332
scalar Network.dyn_peer[88] 	lookupHopsSig:mean 	13.333333333333
scalar Network.dyn_peer[89] 	lookupTimeSig:mean 	1.2833333333333
scalar Network.dyn_peer[89] 	lookupStabilitySig:mean 	0.78420064924285
scalar Network.dyn_peer[89] 	lookupHopsSig:mean 	11.916666666667
scalar Network.dyn_peer[90] 	lookupTimeSig:mean 	1.94
scalar Network.dyn_peer[90] 	lookupStabilitySig:mean 	0.46172067672014
scalar Network.dyn_peer[90] 	lookupHopsSig:mean 	18.6
scalar Network.dyn_peer[91] 	lookupTimeSig:mean 	2.23
scalar Network.dyn_peer[91] 	lookupStabilitySig:mean 	0.96367896101438
scalar Network.dyn_peer[91] 	lookupHopsSig:mean 	21.4
scalar Network.dyn_peer[92] 	lookupTimeSig:mean 	1.675
scalar Network.dyn_peer[92] 	lookupStabilitySig:mean 	0.29104116559029
scalar Network.dyn_peer[92] 	lookupHopsSig:mean 	16
scalar Network.dyn_peer[93] 	lookupTimeSig:mean 	1.6076923076923
scalar Network.dyn_peer[93] 	lookupStabilitySig:mean 	0.92716703212892
scalar Network.dyn_peer[93] 	lookupHopsSig:mean 	15.153846153846
scalar Network.dyn_peer[94] 	lookupTimeSig:mean 	1.7666666666667
scalar Network.dyn_peer[94] 	lookupStabilitySig:mean 	0.58348491461948
scalar Network.dyn_peer[94] 	lookupHopsSig:mean 	16.833333333333
scalar Network.dyn_peer[95] 	lookupTimeSig:mean 	3.25
scalar Network.dyn_peer[95] 	lookupStabilitySig:mean 	0.10493622720242
scalar Network.dyn_peer[95] 	lookupHopsSig:mean 	32
scalar Network.dyn_peer[96] 	lookupTimeSig:mean 	1.375
scalar Network.dyn_peer[96] 	lookupStabilitySig:mean 	0.3219412395265
scalar Network.dyn_peer[96] 	lookupHopsSig:mean 	13
scalar Network.dyn_peer[97] 	lookupTimeSig:mean 	2.9
scalar Network.dyn_peer[97] 	lookupStabilitySig:mean 	0.94829146969797
scalar Network.dyn_peer[97] 	lookupHopsSig:mean 	28.142857142857
scalar Network.dyn_peer[98] 	lookupTimeSig:mean 	1.5555555555556
scalar Network.dyn_peer[98] 	lookupStabilitySig:mean 	0.71938638037278
scalar Network.dyn_peer[98] 	lookupHopsSig:mean 	14.666666666667
scalar Network.dyn_peer[99] 	lookupTimeSig:mean 	1.4
scalar Network.dyn_peer[99] 	lookupStabilitySig:mean 	0.71593801118433
scalar Network.dyn_peer[99] 	lookupHopsSig:mean 	13.25
scalar Network.dyn_peer[100] 	lookupTimeSig:mean 	2.7
scalar Network.dyn_peer[100] 	lookupStabilitySig:mean 	0.24440301954746
scalar Network.dyn_peer[100] 	lookupHopsSig:mean 	26.333333333333
scalar Network.dyn_peer[101] 	lookupTimeSig:mean 	1.6
scalar Network.dyn_peer[101] 	lookupStabilitySig:mean 	0.36850489862263
scalar Network.dyn_peer[101] 	lookupHopsSig:mean 	15.25
scalar Network.dyn_peer[102] 	lookupTimeSig:mean 	1.625
scalar Network.dyn_peer[102] 	lookupStabilitySig:mean 	0.47238038480282
scalar Network.dyn_peer[102] 	lookupHopsSig:mean 	15.5
scalar Network.dyn_peer[103] 	lookupTimeSig:mean 	2.7666666666667
scalar Network.dyn_peer[103] 	lookupStabilitySig:mean 	0.77401522547007
scalar Network.dyn_peer[103] 	lookupHopsSig:mean 	27
scalar Network.dyn_peer[104] 	lookupTimeSig:mean 	1.4
scalar Network.dyn_peer[104] 	lookupStabilitySig:mean 	0.68994889557362
scalar Network.dyn_peer[104] 	lookupHopsSig:mean 	13.2
scalar Network.dyn_peer[105] 	lookupTimeSig:mean 	1.92
scalar Network.dyn_peer[105] 	lookupStabilitySig:mean 	0.88223633719608
scalar Network.dyn_peer[105] 	lookupHopsSig:mean 	18.4
scalar Network.dyn_peer[106] 	lookupTimeSig:mean 	2.25
scalar Network.dyn_peer[106] 	lookupStabilitySig:mean 	0.4375
scalar Network.dyn_peer[106] 	lookupHopsSig:mean 	22
scalar Network.dyn_peer[107] 	lookupTimeSig:mean 	0.9
scalar Network.dyn_peer[107] 	lookupStabilitySig:mean 	0.73985110651702
scalar Network.dyn_peer[107] 	lookupHopsSig:mean 	8.1
scalar Network.dyn_peer[108] 	lookupTimeSig:mean 	1.2333333333333
scalar Network.dyn_peer[108] 	lookupStabilitySig:mean 	0.23809523383776
scalar Network.dyn_peer[108] 	lookupHopsSig:mean 	11.666666666667
scalar Network.dyn_peer[109] 	lookupTimeSig:mean 	1.6181818181818
scalar Network.dyn_peer[109] 	lookupStabilitySig:mean 	0.94310976247388
scalar Network.dyn_peer[109] 	lookupHopsSig:mean 	15.272727272727
scalar Network.dyn_peer[110] 	lookupTimeSig:mean 	1.1333333333333
scalar Network.dyn_peer[110] 	lookupStabilitySig:mean 	0.1578703870376
scalar Network.dyn_peer[110] 	lookupHopsSig:mean 	10.666666666667
scalar Network.dyn_peer[111] 	lookupTimeSig:mean 	2.975
scalar Network.dyn_peer[111] 	lookupStabilitySig:mean 	0.47351291589439
scalar Network.dyn_peer[111] 	lookupHopsSig:mean 	29
scalar Network.dyn_peer[112] 	lookupTimeSig:mean 	1.25
scalar Network.dyn_peer[112] 	lookupStabilitySig:mean 	0.38258805125952
scalar Network.dyn_peer[112] 	lookupHopsSig:mean 	11.75
scalar Network.dyn_peer[113] 	lookupTimeSig:mean 	2.1166666666667
scalar Network.dyn_peer[113] 	lookupStabilitySig:mean 	0.88576151803136
scalar Network.dyn_peer[113] 	lookupHopsSig:mean 	20.333333333333
scalar Network.dyn_peer[114] 	lookupTimeSig:mean 	1.2333333333333
scalar Network.dyn_peer[114] 	lookupStabilitySig:mean 	0.13888890544573
scalar Network.dyn_peer[114] 	lookupHopsSig:mean 	11.666666666667
scalar Network.dyn_peer[115] 	lookupTimeSig:mean 	1.92
scalar Network.dyn_peer[115] 	lookupStabilitySig:mean 	0.50542623028159
scalar Network.dyn_peer[115] 	lookupHopsSig:mean 	18.4
scalar Network.dyn_peer[116] 	lookupTimeSig:mean 	1.9666666666667
scalar Network.dyn_peer[116] 	lookupStabilitySig:mean 	0.79756503345238
scalar Network.dyn_peer[116] 	lookupHopsSig:mean 	18.777777777778
scalar Network.dyn_peer[117] 	lookupTimeSig:mean 	1.7
scalar Network.dyn_peer[117] 	lookupStabilitySig:mean 	0.54629182753464
scalar Network.dyn_peer[117] 	lookupHopsSig:mean 	16.166666666667
scalar Network.dyn_peer[118] 	lookupTimeSig:mean 	1.3454545454545
scalar Network.dyn_peer[118] 	lookupStabilitySig:mean 	0.87258958968927
scalar Network.dyn_peer[118] 	lookupHopsSig:mean 	12.545454545455
scalar Network.dyn_peer[119] 	lookupTimeSig:mean 	1.2
scalar Network.dyn_peer[119] 	lookupStabilitySig:mean 	0.59033562668732
scalar Network.dyn_peer[119] 	lookupHopsSig:mean 	11.142857142857
scalar Network.dyn_peer[120] 	lookupTimeSig:mean 	1.55
scalar Network.dyn_peer[120] 	lookupStabilitySig:mean 	0.71855149250478
scalar Network.dyn_peer[120] 	lookupHopsSig:mean 	14.6
scalar Network.dyn_peer[121] 	lookupTimeSig:mean 	2.15
scalar Network.dyn_peer[121] 	lookupStabilitySig:mean 	-0.15513390302658
scalar Network.dyn_peer[121] 	lookupHopsSig:mean 	21
scalar Network.dyn_peer[122] 	lookupTimeSig:mean 	1.7555555555556
scalar Network.dyn_peer[122] 	lookupStabilitySig:mean 	0.81153711511029
scalar Network.dyn_peer[122] 	lookupHopsSig:mean 	16.666666666667
scalar Network.dyn_peer[123] 	lookupTimeSig:mean 	2.5666666666667
scalar Network.dyn_peer[123] 	lookupStabilitySig:mean 	0.19637691477935
scalar Network.dyn_peer[123] 	lookupHopsSig:mean 	25
scalar Network.dyn_peer[124] 	lookupTimeSig:mean 	1.8416666666667
scalar Network.dyn_peer[124] 	lookupStabilitySig:mean 	0.90834898680138
scalar Network.dyn_peer[124] 	lookupHopsSig:mean 	17.5
scalar Network.dyn_peer[125] 	lookupTimeSig:mean 	2.5571428571429
scalar Network.dyn_peer[125] 	lookupStabilitySig:mean 	0.94810667008694
scalar Network.dyn_peer[125] 	lookupHopsSig:mean 	24.714285714286
scalar Network.dyn_peer[126] 	lookupTimeSig:mean 	1.9
scalar Network.dyn_peer[126] 	lookupStabilitySig:mean 	0.3438375244538
scalar Network.dyn_peer[126] 	lookupHopsSig:mean 	18.333333333333
scalar Network.dyn_peer[127] 	lookupTimeSig:mean 	1.4142857142857
scalar Network.dyn_peer[127] 	lookupStabilitySig:mean 	0.68805412043418
scalar Network.dyn_peer[127] 	lookupHopsSig:mean 	13.285714285714
scalar Network.dyn_peer[128] 	lookupTimeSig:mean 	2
scalar Network.dyn_peer[128] 	lookupStabilitySig:mean 	0.83695550555629
scalar Network.dyn_peer[128] 	lookupHopsSig:mean 	19.142857142857
scalar Network.dyn_peer[129] 	lookupTimeSig:mean 	1.6166666666667
scalar Network.dyn_peer[129] 	lookupStabilitySig:mean 	0.79187254731854
scalar Network.dyn_peer[129] 	lookupHopsSig:mean 	15.333333333333
scalar Network.dyn_peer[130] 	lookupTimeSig:mean 	2.0111111111111
scalar Network.dyn_peer[130] 	lookupStabilitySig:mean 	0.68366694698731
scalar Network.dyn_peer[130] 	lookupHopsSig:mean 	19.222222222222
scalar Network.dyn_peer[131] 	lookupTimeSig:mean 	2.9
scalar Network.dyn_peer[131] 	lookupStabilitySig:mean 	0.27121108273665
scalar Network.dyn_peer[131] 	lookupHopsSig:mean 	28.333333333333
scalar Network.dyn_peer[132] 	lookupTimeSig:mean 	1.52
scalar Network.dyn_peer[132] 	lookupStabilitySig:mean 	0.69647290464491
scalar Network.dyn_peer[132] 	lookupHopsSig:mean 	14.3
scalar Network.dyn_peer[133] 	lookupTimeSig:mean 	1.88
scalar Network.dyn_peer[133] 	lookupStabilitySig:mean 	0.7177118498832
scalar Network.dyn_peer[133] 	lookupHopsSig:mean 	18
scalar Network.dyn_peer[134] 	lookupTimeSig:mean 	1.6333333333333
scalar Network.dyn_peer[134] 	lookupStabilitySig:mean 	0.31252176562945
scalar Network.dyn_peer[134] 	lookupHopsSig:mean 	15.666666666667
scalar Network.dyn_peer[135] 	lookupTimeSig:mean 	1.675
scalar Network.dyn_peer[135] 	lookupStabilitySig:mean 	0.3196785710752
scalar Network.dyn_peer[135] 	lookupHopsSig:mean 	16
scalar Network.dyn_peer[136] 	lookupTimeSig:mean 	1.5222222222222
scalar Network.dyn_peer[136] 	lookupStabilitySig:mean 	0.74249775557675
scalar Network.dyn_peer[136] 	lookupHopsSig:mean 	14.333333333333
scalar Network.dyn_peer[137] 	lookupTimeSig:mean 	1.2875
scalar Network.dyn_peer[137] 	lookupStabilitySig:mean 	0.8189016894612
scalar Network.dyn_peer[137] 	lookupHopsSig:mean 	11.9375
scalar Network.dyn_peer[138] 	lookupTimeSig:mean 	1.6375
scalar Network.dyn_peer[138] 	lookupStabilitySig:mean 	0.91038924292661
scalar Network.dyn_peer[138] 	lookupHopsSig:mean 	15.5
scalar Network.dyn_peer[139] 	lookupTimeSig:mean 	1.9
scalar Network.dyn_peer[139] 	lookupStabilitySig:mean 	0.5392639413476
scalar Network.dyn_peer[139] 	lookupHopsSig:mean 	18.2
scalar Network.dyn_peer[140] 	lookupTimeSig:mean 	1.9
scalar Network.dyn_peer[140] 	lookupStabilitySig:mean 	0.3116986118257
scalar Network.dyn_peer[140] 	lookupHopsSig:mean 	18.25
scalar Network.dyn_peer[141] 	lookupTimeSig:mean 	2.025
scalar Network.dyn_peer[141] 	lookupStabilitySig:mean 	0.93933082284639
scalar Network.dyn_peer[141] 	lookupHopsSig:mean 	19.375
scalar Network.dyn_peer[142] 	lookupTimeSig:mean 	2.0571428571429
scalar Network.dyn_peer[142] 	lookupStabilitySig:mean 	0.94631867649566
scalar Network.dyn_peer[142] 	lookupHopsSig:mean 	19.714285714286
scalar Network.dyn_peer[143] 	lookupTimeSig:mean 	1.86875
scalar Network.dyn_peer[143] 	lookupStabilitySig:mean 	0.97358375939075
scalar Network.dyn_peer[143] 	lookupHopsSig:mean 	17.75
scalar Network.dyn_peer[144] 	lookupTimeSig:mean 	2.68
scalar Network.dyn_peer[144] 	lookupStabilitySig:mean 	0.35979550778866
scalar Network.dyn_peer[144] 	lookupHopsSig:mean 	26
scalar Network.dyn_peer[145] 	lookupTimeSig:mean 	3.08
scalar Network.dyn_peer[145] 	lookupStabilitySig:mean 	0.92023330209777
scalar Network.dyn_peer[145] 	lookupHopsSig:mean 	30
scalar Network.dyn_peer[146] 	lookupTimeSig:mean 	1.3071428571429
scalar Network.dyn_peer[146] 	lookupStabilitySig:mean 	0.78220432567676
scalar Network.dyn_peer[146] 	lookupHopsSig:mean 	12.142857142857
scalar Network.dyn_peer[147] 	lookupTimeSig:mean 	1.82
scalar Network.dyn_peer[147] 	lookupStabilitySig:mean 	0.451720174402
scalar Network.dyn_peer[147] 	lookupHopsSig:mean 	17.4
scalar Network.dyn_peer[148] 	lookupTimeSig:mean 	4
scalar Network.dyn_peer[148] 	lookupStabilitySig:mean 	0.092857144773006
scalar Network.dyn_peer[148] 	lookupHopsSig:mean 	39.5
scalar Network.dyn_peer[149] 	lookupTimeSig:mean 	1.8
scalar Network.dyn_peer[149] 	lookupStabilitySig:mean 	0.96451424094002
scalar Network.dyn_peer[149] 	lookupHopsSig:mean 	17.090909090909
scalar Network.dyn_peer[150] 	lookupTimeSig:mean 	2.1666666666667
scalar Network.dyn_peer[150] 	lookupStabilitySig:mean 	0.59452680250009
scalar Network.dyn_peer[150] 	lookupHopsSig:mean 	21
scalar Network.dyn_peer[151] 	lookupTimeSig:mean 	3.15
scalar Network.dyn_peer[151] 	lookupStabilitySig:mean 	0.44827242940664
scalar Network.dyn_peer[151] 	lookupHopsSig:mean 	30.75
scalar Network.dyn_peer[152] 	lookupTimeSig:mean 	1.7
scalar Network.dyn_peer[152] 	lookupStabilitySig:mean 	0.56532150357962
scalar Network.dyn_peer[152] 	lookupHopsSig:mean 	16.2
scalar Network.dyn_peer[153] 	lookupTimeSig:mean 	2.075
scalar Network.dyn_peer[153] 	lookupStabilitySig:mean 	0.30053619202226
scalar Network.dyn_peer[153] 	lookupHopsSig:mean 	20
scalar Network.dyn_peer[154] 	lookupTimeSig:mean 	2.075
scalar Network.dyn_peer[154] 	lookupStabilitySig:mean 	0.33186126500368
scalar Network.dyn_peer[154] 	lookupHopsSig:mean 	20
scalar Network.dyn_peer[155] 	lookupTimeSig:mean 	1.8285714285714
scalar Network.dyn_peer[155] 	lookupStabilitySig:mean 	0.56493786536157
scalar Network.dyn_peer[155] 	lookupHopsSig:mean 	17.428571428571
scalar Network.dyn_peer[156] 	lookupTimeSig:mean 	3.7666666666667
scalar Network.dyn_peer[156] 	lookupStabilitySig:mean 	0.14805372059345
scalar Network.dyn_peer[156] 	lookupHopsSig:mean 	37
scalar Network.dyn_peer[157] 	lookupTimeSig:mean 	2.6166666666667
scalar Network.dyn_peer[157] 	lookupStabilitySig:mean 	0.59755733485023
scalar Network.dyn_peer[157] 	lookupHopsSig:mean 	25.333333333333
scalar Network.dyn_peer[158] 	lookupTimeSig:mean 	2.025
scalar Network.dyn_peer[158] 	lookupStabilitySig:mean 	0.35370627790689
scalar Network.dyn_peer[158] 	lookupHopsSig:mean 	19.5
scalar Network.dyn_peer[159] 	lookupTimeSig:mean 	1.8857142857143
scalar Network.dyn_peer[159] 	lookupStabilitySig:mean 	0.87392878266318
scalar Network.dyn_peer[159] 	lookupHopsSig:mean 	18
scalar Network.dyn_peer[160] 	lookupTimeSig:mean 	1.675
scalar Network.dyn_peer[160] 	lookupStabilitySig:mean 	0.20932347886264
scalar Network.dyn_peer[160] 	lookupHopsSig:mean 	16
scalar Network.dyn_peer[161] 	lookupTimeSig:mean 	1.93
scalar Network.dyn_peer[161] 	lookupStabilitySig:mean 	0.81622189581394
scalar Network.dyn_peer[161] 	lookupHopsSig:mean 	18.4
scalar Network.dyn_peer[162] 	lookupTimeSig:mean 	3.1666666666667
scalar Network.dyn_peer[162] 	lookupStabilitySig:mean 	0.94985656331604
scalar Network.dyn_peer[162] 	lookupHopsSig:mean 	30.833333333333
scalar Network.dyn_peer[163] 	lookupTimeSig:mean 	1.86
scalar Network.dyn_peer[163] 	lookupStabilitySig:mean 	0.44815007597208
scalar Network.dyn_peer[163] 	lookupHopsSig:mean 	17.8
scalar Network.dyn_peer[164] 	lookupTimeSig:mean 	2.6
scalar Network.dyn_peer[164] 	lookupStabilitySig:mean 	0.19118990004063
scalar Network.dyn_peer[164] 	lookupHopsSig:mean 	25.333333333333
scalar Network.dyn_peer[165] 	lookupTimeSig:mean 	2.025
scalar Network.dyn_peer[165] 	lookupStabilitySig:mean 	0.50825044326484
scalar Network.dyn_peer[165] 	lookupHopsSig:mean 	19.5
scalar Network.dyn_peer[166] 	lookupTimeSig:mean 	3.125
scalar Network.dyn_peer[166] 	lookupStabilitySig:mean 	0.4788337610662
scalar Network.dyn_peer[166] 	lookupHopsSig:mean 	30.5
scalar Network.dyn_peer[167] 	lookupTimeSig:mean 	1.95
scalar Network.dyn_peer[167] 	lookupStabilitySig:mean 	0.76258883625269
scalar Network.dyn_peer[167] 	lookupHopsSig:mean 	18.75
scalar Network.dyn_peer[168] 	lookupTimeSig:mean 	1.45
scalar Network.dyn_peer[168] 	lookupStabilitySig:mean 	0.73584647581447
scalar Network.dyn_peer[168] 	lookupHopsSig:mean 	13.625
scalar Network.dyn_peer[169] 	lookupTimeSig:mean 	2.2
scalar Network.dyn_peer[169] 	lookupStabilitySig:mean 	0.66381052590441
scalar Network.dyn_peer[169] 	lookupHopsSig:mean 	21.125
scalar Network.dyn_peer[170] 	lookupTimeSig:mean 	2.2666666666667
scalar Network.dyn_peer[170] 	lookupStabilitySig:mean 	0.25638049716751
scalar Network.dyn_peer[170] 	lookupHopsSig:mean 	22
scalar Network.dyn_peer[171] 	lookupTimeSig:mean 	2.0571428571429
scalar Network.dyn_peer[171] 	lookupStabilitySig:mean 	0.81959830543825
scalar Network.dyn_peer[171] 	lookupHopsSig:mean 	19.714285714286
scalar Network.dyn_peer[172] 	lookupTimeSig:mean 	1.34
scalar Network.dyn_peer[172] 	lookupStabilitySig:mean 	0.8325056498715
scalar Network.dyn_peer[172] 	lookupHopsSig:mean 	12.466666666667
scalar Network.dyn_peer[173] 	lookupTimeSig:mean 	1.6
scalar Network.dyn_peer[173] 	lookupStabilitySig:mean 	0.80356618682189
scalar Network.dyn_peer[173] 	lookupHopsSig:mean 	15.142857142857
scalar Network.dyn_peer[174] 	lookupTimeSig:mean 	1.6166666666667
scalar Network.dyn_peer[174] 	lookupStabilitySig:mean 	0.46396867930889
scalar Network.dyn_peer[174] 	lookupHopsSig:mean 	15.333333333333
scalar Network.dyn_peer[175] 	lookupTimeSig:mean 	1.4666666666667
scalar Network.dyn_peer[175] 	lookupStabilitySig:mean 	0.55125958534578
scalar Network.dyn_peer[175] 	lookupHopsSig:mean 	13.833333333333
scalar Network.dyn_peer[176] 	lookupTimeSig:mean 	1.775
scalar Network.dyn_peer[176] 	lookupStabilitySig:mean 	0.34888566844165
scalar Network.dyn_peer[176] 	lookupHopsSig:mean 	17
scalar Network.dyn_peer[177] 	lookupTimeSig:mean 	1.7777777777778
scalar Network.dyn_peer[177] 	lookupStabilitySig:mean 	0.8932624433914
scalar Network.dyn_peer[177] 	lookupHopsSig:mean 	16.888888888889
scalar Network.dyn_peer[178] 	lookupTimeSig:mean 	1.95
scalar Network.dyn_peer[178] 	lookupStabilitySig:mean 	0.68210967071354
scalar Network.dyn_peer[178] 	lookupHopsSig:mean 	18.666666666667
scalar Network.dyn_peer[179] 	lookupTimeSig:mean 	1.7
scalar Network.dyn_peer[179] 	lookupStabilitySig:mean 	0.36321642994881
scalar Network.dyn_peer[179] 	lookupHopsSig:mean 	16.25
scalar Network.dyn_peer[180] 	lookupTimeSig:mean 	1.575
scalar Network.dyn_peer[180] 	lookupStabilitySig:mean 	0.57964352844283
scalar Network.dyn_peer[180] 	lookupHopsSig:mean 	15
scalar Network.dyn_peer[181] 	lookupTimeSig:mean 	1.67
scalar Network.dyn_peer[181] 	lookupStabilitySig:mean 	0.80071886368096
scalar Network.dyn_peer[181] 	lookupHopsSig:mean 	15.8
scalar Network.dyn_peer[182] 	lookupTimeSig:mean 	1.675
scalar Network.dyn_peer[182] 	lookupStabilitySig:mean 	0.6918334957445
scalar Network.dyn_peer[182] 	lookupHopsSig:mean 	16
scalar Network.dyn_peer[183] 	lookupTimeSig:mean 	1.66
scalar Network.dyn_peer[183] 	lookupStabilitySig:mean 	0.51531349644065
scalar Network.dyn_peer[183] 	lookupHopsSig:mean 	15.8
scalar Network.dyn_peer[184] 	lookupTimeSig:mean 	1.66
scalar Network.dyn_peer[184] 	lookupStabilitySig:mean 	0.55060419887304
scalar Network.dyn_peer[184] 	lookupHopsSig:mean 	15.8
scalar Network.dyn_peer[185] 	lookupTimeSig:mean 	2.925
scalar Network.dyn_peer[185] 	lookupStabilitySig:mean 	0.42782269604504
scalar Network.dyn_peer[185] 	lookupHopsSig:mean 	28.5
scalar Network.dyn_peer[186] 	lookupTimeSig:mean 	1.5266666666667
scalar Network.dyn_peer[186] 	lookupStabilitySig:mean 	0.96534110306141
scalar Network.dyn_peer[186] 	lookupHopsSig:mean 	14.333333333333
scalar Network.dyn_peer[187] 	lookupTimeSig:mean 	2.3
scalar Network.dyn_peer[187] 	lookupStabilitySig:mean 	0.5154495453462
scalar Network.dyn_peer[187] 	lookupHopsSig:mean 	22.25
scalar Network.dyn_peer[188] 	lookupTimeSig:mean 	3
scalar Network.dyn_peer[188] 	lookupStabilitySig:mean 	0.25862240046263
scalar Network.dyn_peer[188] 	lookupHopsSig:mean 	29.333333333333
scalar Network.dyn_peer[189] 	lookupTimeSig:mean 	2.1
scalar Network.dyn_peer[189] 	lookupStabilitySig:mean 	0.90853859996423
scalar Network.dyn_peer[189] 	lookupHopsSig:mean 	20.1
scalar Network.dyn_peer[190] 	lookupTimeSig:mean 	2.75
scalar Network.dyn_peer[190] 	lookupStabilitySig:mean 	0.094409927725792
scalar Network.dyn_peer[190] 	lookupHopsSig:mean 	27
scalar Network.dyn_peer[191] 	lookupTimeSig:mean 	1.1857142857143
scalar Network.dyn_peer[191] 	lookupStabilitySig:mean 	0.69955172379767
scalar Network.dyn_peer[191] 	lookupHopsSig:mean 	11
scalar Network.dyn_peer[192] 	lookupTimeSig:mean 	1.475
scalar Network.dyn_peer[192] 	lookupStabilitySig:mean 	0.7370125624584
scalar Network.dyn_peer[192] 	lookupHopsSig:mean 	13.875
scalar Network.dyn_peer[193] 	lookupTimeSig:mean 	1.7
scalar Network.dyn_peer[193] 	lookupStabilitySig:mean 	0.85327467974275
scalar Network.dyn_peer[193] 	lookupHopsSig:mean 	16.25
scalar Network.dyn_peer[194] 	lookupTimeSig:mean 	2.1
scalar Network.dyn_peer[194] 	lookupStabilitySig:mean 	0.43181837163866
scalar Network.dyn_peer[194] 	lookupHopsSig:mean 	20.25
scalar Network.dyn_peer[195] 	lookupTimeSig:mean 	3
scalar Network.dyn_peer[195] 	lookupStabilitySig:mean 	0.18510171771049
scalar Network.dyn_peer[195] 	lookupHopsSig:mean 	29.333333333333
scalar Network.dyn_peer[196] 	lookupTimeSig:mean 	1.525
scalar Network.dyn_peer[196] 	lookupStabilitySig:mean 	0.76635676799924
scalar Network.dyn_peer[196] 	lookupHopsSig:mean 	14.375
scalar Network.dyn_peer[197] 	lookupTimeSig:mean 	1.85
scalar Network.dyn_peer[197] 	lookupStabilitySig:mean 	0.34999431297183
scalar Network.dyn_peer[197] 	lookupHopsSig:mean 	17.75
scalar Network.dyn_peer[198] 	lookupTimeSig:mean 	2.45
scalar Network.dyn_peer[198] 	lookupStabilitySig:mean 	0.28760869055986
scalar Network.dyn_peer[198] 	lookupHopsSig:mean 	24
scalar Network.dyn_peer[199] 	lookupTimeSig:mean 	1.7222222222222
scalar Network.dyn_peer[199] 	lookupStabilitySig:mean 	0.82312253583223
scalar Network.dyn_peer[199] 	lookupHopsSig:mean 	16.333333333333
scalar Network.dyn_peer[200] 	lookupTimeSig:mean 	1.4
scalar Network.dyn_peer[200] 	lookupStabilitySig:mean 	0.8932514617739
scalar Network.dyn_peer[200] 	lookupHopsSig:mean 	13.076923076923
scalar Network.dyn_peer[201] 	lookupTimeSig:mean 	1.1428571428571
scalar Network.dyn_peer[201] 	lookupStabilitySig:mean 	0.57922238736813
scalar Network.dyn_peer[201] 	lookupHopsSig:mean 	10.571428571429
scalar Network.dyn_peer[202] 	lookupTimeSig:mean 	3.8666666666667
scalar Network.dyn_peer[202] 	lookupStabilitySig:mean 	0.50168155878782
scalar Network.dyn_peer[202] 	lookupHopsSig:mean 	38
scalar Network.dyn_peer[203] 	lookupTimeSig:mean 	1.4222222222222
scalar Network.dyn_peer[203] 	lookupStabilitySig:mean 	0.93456539232284
scalar Network.dyn_peer[203] 	lookupHopsSig:mean 	13.333333333333
scalar Network.dyn_peer[204] 	lookupTimeSig:mean 	2.68
scalar Network.dyn_peer[204] 	lookupStabilitySig:mean 	0.6343705046922
scalar Network.dyn_peer[204] 	lookupHopsSig:mean 	26
scalar Network.dyn_peer[205] 	lookupTimeSig:mean 	3.525
scalar Network.dyn_peer[205] 	lookupStabilitySig:mean 	0.83618453517556
scalar Network.dyn_peer[205] 	lookupHopsSig:mean 	34.5
scalar Network.dyn_peer[206] 	lookupTimeSig:mean 	2.0714285714286
scalar Network.dyn_peer[206] 	lookupStabilitySig:mean 	0.93801176920533
scalar Network.dyn_peer[206] 	lookupHopsSig:mean 	19.857142857143
scalar Network.dyn_peer[207] 	lookupTimeSig:mean 	1.76
scalar Network.dyn_peer[207] 	lookupStabilitySig:mean 	0.47808586806059
scalar Network.dyn_peer[207] 	lookupHopsSig:mean 	16.8
scalar Network.dyn_peer[208] 	lookupTimeSig:mean 	1.86
scalar Network.dyn_peer[208] 	lookupStabilitySig:mean 	0.81138085536659
scalar Network.dyn_peer[208] 	lookupHopsSig:mean 	17.8
scalar Network.dyn_peer[209] 	lookupTimeSig:mean 	1.5666666666667
scalar Network.dyn_peer[209] 	lookupStabilitySig:mean 	0.76795037152867
scalar Network.dyn_peer[209] 	lookupHopsSig:mean 	14.75
scalar Network.dyn_peer[210] 	lookupTimeSig:mean 	1.1111111111111
scalar Network.dyn_peer[210] 	lookupStabilitySig:mean 	0.72832862122191
scalar Network.dyn_peer[210] 	lookupHopsSig:mean 	10.222222222222
scalar Network.dyn_peer[211] 	lookupTimeSig:mean 	2.375
scalar Network.dyn_peer[211] 	lookupStabilitySig:mean 	0.46725251339376
scalar Network.dyn_peer[211] 	lookupHopsSig:mean 	23
scalar Network.dyn_peer[212] 	lookupTimeSig:mean 	1.5833333333333
scalar Network.dyn_peer[212] 	lookupStabilitySig:mean 	0.87116871413309
scalar Network.dyn_peer[212] 	lookupHopsSig:mean 	14.916666666667
scalar Network.dyn_peer[213] 	lookupTimeSig:mean 	1.86
scalar Network.dyn_peer[213] 	lookupStabilitySig:mean 	0.46992168352008
scalar Network.dyn_peer[213] 	lookupHopsSig:mean 	17.8
scalar Network.dyn_peer[214] 	lookupTimeSig:mean 	2.36
scalar Network.dyn_peer[214] 	lookupStabilitySig:mean 	0.54427890852094
scalar Network.dyn_peer[214] 	lookupHopsSig:mean 	22.8
scalar Network.dyn_peer[215] 	lookupTimeSig:mean 	1.175
scalar Network.dyn_peer[215] 	lookupStabilitySig:mean 	0.32617924362421
scalar Network.dyn_peer[215] 	lookupHopsSig:mean 	11
scalar Network.dyn_peer[216] 	lookupTimeSig:mean 	1.65
scalar Network.dyn_peer[216] 	lookupStabilitySig:mean 	0.79608742749718
scalar Network.dyn_peer[216] 	lookupHopsSig:mean 	15.571428571429
scalar Network.dyn_peer[217] 	lookupTimeSig:mean 	1.5
scalar Network.dyn_peer[217] 	lookupStabilitySig:mean 	0.82246182482833
scalar Network.dyn_peer[217] 	lookupHopsSig:mean 	14.076923076923
scalar Network.dyn_peer[218] 	lookupTimeSig:mean 	2.44
scalar Network.dyn_peer[218] 	lookupStabilitySig:mean 	0.82141233365983
scalar Network.dyn_peer[218] 	lookupHopsSig:mean 	23.6
scalar Network.dyn_peer[219] 	lookupTimeSig:mean 	1.95
scalar Network.dyn_peer[219] 	lookupStabilitySig:mean 	0.54363468661904
scalar Network.dyn_peer[219] 	lookupHopsSig:mean 	18.75
scalar Network.dyn_peer[220] 	lookupTimeSig:mean 	1.9666666666667
scalar Network.dyn_peer[220] 	lookupStabilitySig:mean 	0.45555553771555
scalar Network.dyn_peer[220] 	lookupHopsSig:mean 	19
scalar Network.dyn_peer[221] 	lookupTimeSig:mean 	2.46
scalar Network.dyn_peer[221] 	lookupStabilitySig:mean 	0.58052725270391
scalar Network.dyn_peer[221] 	lookupHopsSig:mean 	23.8
scalar Network.dyn_peer[222] 	lookupTimeSig:mean 	2.8
scalar Network.dyn_peer[222] 	lookupStabilitySig:mean 	0.71977419219911
scalar Network.dyn_peer[222] 	lookupHopsSig:mean 	27.142857142857
scalar Network.dyn_peer[223] 	lookupTimeSig:mean 	3.7
scalar Network.dyn_peer[223] 	lookupStabilitySig:mean 	0.23627086666723
scalar Network.dyn_peer[223] 	lookupHopsSig:mean 	36.333333333333
scalar Network.dyn_peer[224] 	lookupTimeSig:mean 	3.7333333333333
scalar Network.dyn_peer[224] 	lookupStabilitySig:mean 	0.53597720215718
scalar Network.dyn_peer[224] 	lookupHopsSig:mean 	36.666666666667
scalar Network.dyn_peer[225] 	lookupTimeSig:mean 	2.2
scalar Network.dyn_peer[225] 	lookupStabilitySig:mean 	0.24285713583231
scalar Network.dyn_peer[225] 	lookupHopsSig:mean 	21.333333333333
scalar Network.dyn_peer[226] 	lookupTimeSig:mean 	1.3142857142857
scalar Network.dyn_peer[226] 	lookupStabilitySig:mean 	0.60951738112739
scalar Network.dyn_peer[226] 	lookupHopsSig:mean 	12.285714285714
scalar Network.dyn_peer[227] 	lookupTimeSig:mean 	1.6333333333333
scalar Network.dyn_peer[227] 	lookupStabilitySig:mean 	0.73945588582299
scalar Network.dyn_peer[227] 	lookupHopsSig:mean 	15.444444444444
scalar Network.dyn_peer[228] 	lookupTimeSig:mean 	2.175
scalar Network.dyn_peer[228] 	lookupStabilitySig:mean 	0.46550046373159
scalar Network.dyn_peer[228] 	lookupHopsSig:mean 	21
scalar Network.dyn_peer[229] 	lookupTimeSig:mean 	2.04
scalar Network.dyn_peer[229] 	lookupStabilitySig:mean 	0.57155585214496
scalar Network.dyn_peer[229] 	lookupHopsSig:mean 	19.6
scalar Network.dyn_peer[230] 	lookupTimeSig:mean 	2.04
scalar Network.dyn_peer[230] 	lookupStabilitySig:mean 	0.48306908458471
scalar Network.dyn_peer[230] 	lookupHopsSig:mean 	19.6
scalar Network.dyn_peer[231] 	lookupTimeSig:mean 	1.2777777777778
scalar Network.dyn_peer[231] 	lookupStabilitySig:mean 	0.728247538002
scalar Network.dyn_peer[231] 	lookupHopsSig:mean 	11.888888888889
scalar Network.dyn_peer[232] 	lookupTimeSig:mean 	0.675
scalar Network.dyn_peer[232] 	lookupStabilitySig:mean 	0.3438987955451
scalar Network.dyn_peer[232] 	lookupHopsSig:mean 	6
scalar Network.dyn_peer[233] 	lookupTimeSig:mean 	1.6272727272727
scalar Network.dyn_peer[233] 	lookupStabilitySig:mean 	0.9206094915386
scalar Network.dyn_peer[233] 	lookupHopsSig:mean 	15.363636363636
scalar Network.dyn_peer[234] 	lookupTimeSig:mean 	1.7
scalar Network.dyn_peer[234] 	lookupStabilitySig:mean 	0.86244797746518
scalar Network.dyn_peer[234] 	lookupHopsSig:mean 	16.142857142857
scalar Network.dyn_peer[235] 	lookupTimeSig:mean 	1.1
scalar Network.dyn_peer[235] 	lookupStabilitySig:mean 	0.70993065385317
scalar Network.dyn_peer[235] 	lookupHopsSig:mean 	10.090909090909
scalar Network.dyn_peer[236] 	lookupTimeSig:mean 	2.425
scalar Network.dyn_peer[236] 	lookupStabilitySig:mean 	0.52065559942275
scalar Network.dyn_peer[236] 	lookupHopsSig:mean 	23.5
scalar Network.dyn_peer[237] 	lookupTimeSig:mean 	2.45
scalar Network.dyn_peer[237] 	lookupStabilitySig:mean 	0.25504256039858
scalar Network.dyn_peer[237] 	lookupHopsSig:mean 	24
scalar Network.dyn_peer[238] 	lookupTimeSig:mean 	1.3909090909091
scalar Network.dyn_peer[238] 	lookupStabilitySig:mean 	0.77337765689431
scalar Network.dyn_peer[238] 	lookupHopsSig:mean 	13
scalar Network.dyn_peer[239] 	lookupTimeSig:mean 	2.2
scalar Network.dyn_peer[239] 	lookupStabilitySig:mean 	0.9290337585068
scalar Network.dyn_peer[239] 	lookupHopsSig:mean 	21.166666666667
scalar Network.dyn_peer[240] 	lookupTimeSig:mean 	0.74285714285714
scalar Network.dyn_peer[240] 	lookupStabilitySig:mean 	0.57186283703361
scalar Network.dyn_peer[240] 	lookupHopsSig:mean 	6.5714285714286
scalar Network.dyn_peer[241] 	lookupTimeSig:mean 	1.6
scalar Network.dyn_peer[241] 	lookupStabilitySig:mean 	0.48599142208695
scalar Network.dyn_peer[241] 	lookupHopsSig:mean 	15.2
scalar Network.dyn_peer[242] 	lookupTimeSig:mean 	1.475
scalar Network.dyn_peer[242] 	lookupStabilitySig:mean 	0.78458041216557
scalar Network.dyn_peer[242] 	lookupHopsSig:mean 	13.833333333333
scalar Network.dyn_peer[243] 	lookupTimeSig:mean 	1.4
scalar Network.dyn_peer[243] 	lookupStabilitySig:mean 	0.01124614973863
scalar Network.dyn_peer[243] 	lookupHopsSig:mean 	13.333333333333
scalar Network.dyn_peer[244] 	lookupTimeSig:mean 	1.72
scalar Network.dyn_peer[244] 	lookupStabilitySig:mean 	0.78183948993683
scalar Network.dyn_peer[244] 	lookupHopsSig:mean 	16.4
scalar Network.dyn_peer[245] 	lookupTimeSig:mean 	3.7
scalar Network.dyn_peer[245] 	lookupStabilitySig:mean 	0.61614022403955
scalar Network.dyn_peer[245] 	lookupHopsSig:mean 	36.5
scalar Network.dyn_peer[246] 	lookupTimeSig:mean 	2.8666666666667
scalar Network.dyn_peer[246] 	lookupStabilitySig:mean 	0.41099749753873
scalar Network.dyn_peer[246] 	lookupHopsSig:mean 	28
scalar Network.dyn_peer[247] 	lookupTimeSig:mean 	3.0666666666667
scalar Network.dyn_peer[247] 	lookupStabilitySig:mean 	0.15728462735812
scalar Network.dyn_peer[247] 	lookupHopsSig:mean 	30
scalar Network.dyn_peer[248] 	lookupTimeSig:mean 	2.175
scalar Network.dyn_peer[248] 	lookupStabilitySig:mean 	0.6057949308306
scalar Network.dyn_peer[248] 	lookupHopsSig:mean 	21
scalar Network.dyn_peer[249] 	lookupTimeSig:mean 	1.6714285714286
scalar Network.dyn_peer[249] 	lookupStabilitySig:mean 	0.86261659168771
scalar Network.dyn_peer[249] 	lookupHopsSig:mean 	15.857142857143
scalar Network.dyn_peer[250] 	lookupTimeSig:mean 	1.5916666666667
scalar Network.dyn_peer[250] 	lookupStabilitySig:mean 	0.7755785890234
scalar Network.dyn_peer[250] 	lookupHopsSig:mean 	15
scalar Network.dyn_peer[251] 	lookupTimeSig:mean 	1.82
scalar Network.dyn_peer[251] 	lookupStabilitySig:mean 	0.42304755598307
scalar Network.dyn_peer[251] 	lookupHopsSig:mean 	17.4
scalar Network.dyn_peer[252] 	lookupTimeSig:mean 	1.3625
scalar Network.dyn_peer[252] 	lookupStabilitySig:mean 	0.76482098945417
scalar Network.dyn_peer[252] 	lookupHopsSig:mean 	12.75
scalar Network.dyn_peer[253] 	lookupTimeSig:mean 	1.1888888888889
scalar Network.dyn_peer[253] 	lookupStabilitySig:mean 	0.83153654231379
scalar Network.dyn_peer[253] 	lookupHopsSig:mean 	11
scalar Network.dyn_peer[254] 	lookupTimeSig:mean 	1.6846153846154
scalar Network.dyn_peer[254] 	lookupStabilitySig:mean 	0.90790365636349
scalar Network.dyn_peer[254] 	lookupHopsSig:mean 	15.923076923077
scalar Network.dyn_peer[255] 	lookupTimeSig:mean 	2.625
scalar Network.dyn_peer[255] 	lookupStabilitySig:mean 	0.54816428897902
scalar Network.dyn_peer[255] 	lookupHopsSig:mean 	25.5
scalar Network.dyn_peer[256] 	lookupTimeSig:mean 	1.7333333333333
scalar Network.dyn_peer[256] 	lookupStabilitySig:mean 	0.53411084475617
scalar Network.dyn_peer[256] 	lookupHopsSig:mean 	16.5
scalar Network.dyn_peer[257] 	lookupTimeSig:mean 	1.4875
scalar Network.dyn_peer[257] 	lookupStabilitySig:mean 	0.7556548116263
scalar Network.dyn_peer[257] 	lookupHopsSig:mean 	14
scalar Network.dyn_peer[258] 	lookupTimeSig:mean 	4.7
scalar Network.dyn_peer[258] 	lookupStabilitySig:mean 	0.58607593923807
scalar Network.dyn_peer[258] 	lookupHopsSig:mean 	46.5
scalar Network.dyn_peer[259] 	lookupTimeSig:mean 	2.0666666666667
scalar Network.dyn_peer[259] 	lookupStabilitySig:mean 	0.23094173272451
scalar Network.dyn_peer[259] 	lookupHopsSig:mean 	20
scalar Network.dyn_peer[260] 	lookupTimeSig:mean 	2.5
scalar Network.dyn_peer[260] 	lookupStabilitySig:mean 	0.60539871640503
scalar Network.dyn_peer[260] 	lookupHopsSig:mean 	24.25
scalar Network.dyn_peer[261] 	lookupTimeSig:mean 	1.3857142857143
scalar Network.dyn_peer[261] 	lookupStabilitySig:mean 	0.70039002630594
scalar Network.dyn_peer[261] 	lookupHopsSig:mean 	13
scalar Network.dyn_peer[262] 	lookupTimeSig:mean 	2.52
scalar Network.dyn_peer[262] 	lookupStabilitySig:mean 	0.4951828699559
scalar Network.dyn_peer[262] 	lookupHopsSig:mean 	24.4
scalar Network.dyn_peer[263] 	lookupTimeSig:mean 	2.5666666666667
scalar Network.dyn_peer[263] 	lookupStabilitySig:mean 	0.95490293784274
scalar Network.dyn_peer[263] 	lookupHopsSig:mean 	24.777777777778
scalar Network.dyn_peer[264] 	lookupTimeSig:mean 	1.35
scalar Network.dyn_peer[264] 	lookupStabilitySig:mean 	0.91536306878552
scalar Network.dyn_peer[264] 	lookupHopsSig:mean 	12.6
scalar Network.dyn_peer[265] 	lookupTimeSig:mean 	2.1666666666667
scalar Network.dyn_peer[265] 	lookupStabilitySig:mean 	0.63287279848009
scalar Network.dyn_peer[265] 	lookupHopsSig:mean 	20.833333333333
scalar Network.dyn_peer[266] 	lookupTimeSig:mean 	2.26
scalar Network.dyn_peer[266] 	lookupStabilitySig:mean 	0.34575180411339
scalar Network.dyn_peer[266] 	lookupHopsSig:mean 	21.8
scalar Network.dyn_peer[267] 	lookupTimeSig:mean 	1.1666666666667
scalar Network.dyn_peer[267] 	lookupStabilitySig:mean 	0.27500577270985
scalar Network.dyn_peer[267] 	lookupHopsSig:mean 	11
scalar Network.dyn_peer[268] 	lookupTimeSig:mean 	2.0142857142857
scalar Network.dyn_peer[268] 	lookupStabilitySig:mean 	0.70304235988962
scalar Network.dyn_peer[268] 	lookupHopsSig:mean 	19.285714285714
scalar Network.dyn_peer[269] 	lookupTimeSig:mean 	1.2166666666667
scalar Network.dyn_peer[269] 	lookupStabilitySig:mean 	0.56256519382199
scalar Network.dyn_peer[269] 	lookupHopsSig:mean 	11.333333333333
scalar Network.dyn_peer[270] 	lookupTimeSig:mean 	1.2363636363636
scalar Network.dyn_peer[270] 	lookupStabilitySig:mean 	0.78324258793145
scalar Network.dyn_peer[270] 	lookupHopsSig:mean 	11.454545454545
scalar Network.dyn_peer[271] 	lookupTimeSig:mean 	1.3875
scalar Network.dyn_peer[271] 	lookupStabilitySig:mean 	0.87700405868236
scalar Network.dyn_peer[271] 	lookupHopsSig:mean 	13
scalar Network.dyn_peer[272] 	lookupTimeSig:mean 	1.2454545454545
scalar Network.dyn_peer[272] 	lookupStabilitySig:mean 	0.7479942780496
scalar Network.dyn_peer[272] 	lookupHopsSig:mean 	11.545454545455
scalar Network.dyn_peer[273] 	lookupTimeSig:mean 	2.3333333333333
scalar Network.dyn_peer[273] 	lookupStabilitySig:mean 	0.35727636019389
scalar Network.dyn_peer[273] 	lookupHopsSig:mean 	22.666666666667
scalar Network.dyn_peer[274] 	lookupTimeSig:mean 	3.575
scalar Network.dyn_peer[274] 	lookupStabilitySig:mean 	0.73398353578523
scalar Network.dyn_peer[274] 	lookupHopsSig:mean 	35
scalar Network.dyn_peer[275] 	lookupTimeSig:mean 	1.9
scalar Network.dyn_peer[275] 	lookupStabilitySig:mean 	0.38934598192573
scalar Network.dyn_peer[275] 	lookupHopsSig:mean 	18.2
scalar Network.dyn_peer[276] 	lookupTimeSig:mean 	1.35
scalar Network.dyn_peer[276] 	lookupStabilitySig:mean 	0.69906848180108
scalar Network.dyn_peer[276] 	lookupHopsSig:mean 	12.625
scalar Network.dyn_peer[277] 	lookupTimeSig:mean 	2.1166666666667
scalar Network.dyn_peer[277] 	lookupStabilitySig:mean 	0.61986220441759
scalar Network.dyn_peer[277] 	lookupHopsSig:mean 	20.333333333333
scalar Network.dyn_peer[278] 	lookupTimeSig:mean 	1.8166666666667
scalar Network.dyn_peer[278] 	lookupStabilitySig:mean 	0.58942411552804
scalar Network.dyn_peer[278] 	lookupHopsSig:mean 	17.333333333333
scalar Network.dyn_peer[279] 	lookupTimeSig:mean 	1.825
scalar Network.dyn_peer[279] 	lookupStabilitySig:mean 	0.82182825426571
scalar Network.dyn_peer[279] 	lookupHopsSig:mean 	17.375
scalar Network.dyn_peer[280] 	lookupTimeSig:mean 	1.5
scalar Network.dyn_peer[280] 	lookupStabilitySig:mean 	0.40754600428045
scalar Network.dyn_peer[280] 	lookupHopsSig:mean 	14.25
scalar Network.dyn_peer[281] 	lookupTimeSig:mean 	1.62
scalar Network.dyn_peer[281] 	lookupStabilitySig:mean 	0.50326892845333
scalar Network.dyn_peer[281] 	lookupHopsSig:mean 	15.4
scalar Network.dyn_peer[282] 	lookupTimeSig:mean 	2
scalar Network.dyn_peer[282] 	lookupStabilitySig:mean 	0.93469469384714
scalar Network.dyn_peer[282] 	lookupHopsSig:mean 	19.090909090909
scalar Network.dyn_peer[283] 	lookupTimeSig:mean 	0.82
scalar Network.dyn_peer[283] 	lookupStabilitySig:mean 	0.53476189672947
scalar Network.dyn_peer[283] 	lookupHopsSig:mean 	7.4
scalar Network.dyn_peer[284] 	lookupTimeSig:mean 	3.15
scalar Network.dyn_peer[284] 	lookupStabilitySig:mean 	0.62867647409439
scalar Network.dyn_peer[284] 	lookupHopsSig:mean 	31
scalar Network.dyn_peer[285] 	lookupTimeSig:mean 	1.6571428571429
scalar Network.dyn_peer[285] 	lookupStabilitySig:mean 	0.79682337732187
scalar Network.dyn_peer[285] 	lookupHopsSig:mean 	15.714285714286
scalar Network.dyn_peer[286] 	lookupTimeSig:mean 	1.425
scalar Network.dyn_peer[286] 	lookupStabilitySig:mean 	0.58090023696423
scalar Network.dyn_peer[286] 	lookupHopsSig:mean 	13.5
scalar Network.dyn_peer[287] 	lookupTimeSig:mean 	3.8
scalar Network.dyn_peer[287] 	lookupStabilitySig:mean 	0.36434108018875
scalar Network.dyn_peer[287] 	lookupHopsSig:mean 	37.5
scalar Network.dyn_peer[288] 	lookupTimeSig:mean 	1.8777777777778
scalar Network.dyn_peer[288] 	lookupStabilitySig:mean 	0.94277815960555
scalar Network.dyn_peer[288] 	lookupHopsSig:mean 	17.888888888889
scalar Network.dyn_peer[289] 	lookupTimeSig:mean 	1.9
scalar Network.dyn_peer[289] 	lookupStabilitySig:mean 	0.36796123286088
scalar Network.dyn_peer[289] 	lookupHopsSig:mean 	18.333333333333
scalar Network.dyn_peer[290] 	lookupTimeSig:mean 	1.6083333333333
scalar Network.dyn_peer[290] 	lookupStabilitySig:mean 	0.72756449129277
scalar Network.dyn_peer[290] 	lookupHopsSig:mean 	15.166666666667
scalar Network.dyn_peer[291] 	lookupTimeSig:mean 	3.75
scalar Network.dyn_peer[291] 	lookupStabilitySig:mean 	0.087269604206085
scalar Network.dyn_peer[291] 	lookupHopsSig:mean 	37
scalar Network.dyn_peer[292] 	lookupTimeSig:mean 	2.225
scalar Network.dyn_peer[292] 	lookupStabilitySig:mean 	0.42807208653539
scalar Network.dyn_peer[292] 	lookupHopsSig:mean 	21.5
scalar Network.dyn_peer[293] 	lookupTimeSig:mean 	1.6
scalar Network.dyn_peer[293] 	lookupStabilitySig:mean 	0.93513796074937
scalar Network.dyn_peer[293] 	lookupHopsSig:mean 	15.111111111111
scalar Network.dyn_peer[294] 	lookupTimeSig:mean 	1.5833333333333
scalar Network.dyn_peer[294] 	lookupStabilitySig:mean 	0.81287340447307
scalar Network.dyn_peer[294] 	lookupHopsSig:mean 	15
scalar Network.dyn_peer[295] 	lookupTimeSig:mean 	3.3
scalar Network.dyn_peer[295] 	lookupStabilitySig:mean 	-0.0741106569767
scalar Network.dyn_peer[295] 	lookupHopsSig:mean 	32.5
scalar Network.dyn_peer[296] 	lookupTimeSig:mean 	1.1666666666667
scalar Network.dyn_peer[296] 	lookupStabilitySig:mean 	0.68976815541585
scalar Network.dyn_peer[296] 	lookupHopsSig:mean 	10.833333333333
scalar Network.dyn_peer[297] 	lookupTimeSig:mean 	2.025
scalar Network.dyn_peer[297] 	lookupStabilitySig:mean 	0.50828179344535
scalar Network.dyn_peer[297] 	lookupHopsSig:mean 	19.5
scalar Network.dyn_peer[298] 	lookupTimeSig:mean 	2.24
scalar Network.dyn_peer[298] 	lookupStabilitySig:mean 	0.94713969319128
scalar Network.dyn_peer[298] 	lookupHopsSig:mean 	21.5
scalar Network.dyn_peer[299] 	lookupTimeSig:mean 	2.025
scalar Network.dyn_peer[299] 	lookupStabilitySig:mean 	0.57104409486055
scalar Network.dyn_peer[299] 	lookupHopsSig:mean 	19.5
scalar Network.dyn_peer[300] 	lookupTimeSig:mean 	1.7
scalar Network.dyn_peer[300] 	lookupStabilitySig:mean 	0.70951267176618
scalar Network.dyn_peer[300] 	lookupHopsSig:mean 	16.166666666667
scalar Network.dyn_peer[301] 	lookupTimeSig:mean 	3.8
scalar Network.dyn_peer[301] 	lookupStabilitySig:mean 	0.58760484308004
scalar Network.dyn_peer[301] 	lookupHopsSig:mean 	37.5
scalar Network.dyn_peer[302] 	lookupTimeSig:mean 	2.7142857142857
scalar Network.dyn_peer[302] 	lookupStabilitySig:mean 	0.93675146571227
scalar Network.dyn_peer[302] 	lookupHopsSig:mean 	26.285714285714
scalar Network.dyn_peer[303] 	lookupTimeSig:mean 	1.7692307692308
scalar Network.dyn_peer[303] 	lookupStabilitySig:mean 	0.94002471735271
scalar Network.dyn_peer[303] 	lookupHopsSig:mean 	16.769230769231
scalar Network.dyn_peer[304] 	lookupTimeSig:mean 	2.24
scalar Network.dyn_peer[304] 	lookupStabilitySig:mean 	0.38041722550988
scalar Network.dyn_peer[304] 	lookupHopsSig:mean 	21.6
scalar Network.dyn_peer[305] 	lookupTimeSig:mean 	2.0428571428571
scalar Network.dyn_peer[305] 	lookupStabilitySig:mean 	0.92335365273591
scalar Network.dyn_peer[305] 	lookupHopsSig:mean 	19.571428571429
scalar Network.dyn_peer[306] 	lookupTimeSig:mean 	2.875
scalar Network.dyn_peer[306] 	lookupStabilitySig:mean 	0.70905363559723
scalar Network.dyn_peer[306] 	lookupHopsSig:mean 	28
scalar Network.dyn_peer[307] 	lookupTimeSig:mean 	2.5
scalar Network.dyn_peer[307] 	lookupStabilitySig:mean 	0.31483695407708
scalar Network.dyn_peer[307] 	lookupHopsSig:mean 	24.333333333333
scalar Network.dyn_peer[308] 	lookupTimeSig:mean 	1.5625
scalar Network.dyn_peer[308] 	lookupStabilitySig:mean 	0.67503709578887
scalar Network.dyn_peer[308] 	lookupHopsSig:mean 	14.75
scalar Network.dyn_peer[309] 	lookupTimeSig:mean 	1.7666666666667
scalar Network.dyn_peer[309] 	lookupStabilitySig:mean 	0.13728014628092
scalar Network.dyn_peer[309] 	lookupHopsSig:mean 	17
scalar Network.dyn_peer[310] 	lookupTimeSig:mean 	3.12
scalar Network.dyn_peer[310] 	lookupStabilitySig:mean 	0.91911864187568
scalar Network.dyn_peer[310] 	lookupHopsSig:mean 	30.4
scalar Network.dyn_peer[311] 	lookupTimeSig:mean 	2.1333333333333
scalar Network.dyn_peer[311] 	lookupStabilitySig:mean 	0.57434252245973
scalar Network.dyn_peer[311] 	lookupHopsSig:mean 	20.5
scalar Network.dyn_peer[312] 	lookupTimeSig:mean 	1.1333333333333
scalar Network.dyn_peer[312] 	lookupStabilitySig:mean 	0.86492272264635
scalar Network.dyn_peer[312] 	lookupHopsSig:mean 	10.5
scalar Network.dyn_peer[313] 	lookupTimeSig:mean 	1.3777777777778
scalar Network.dyn_peer[313] 	lookupStabilitySig:mean 	0.73515196113537
scalar Network.dyn_peer[313] 	lookupHopsSig:mean 	12.888888888889
scalar Network.dyn_peer[314] 	lookupTimeSig:mean 	2.325
scalar Network.dyn_peer[314] 	lookupStabilitySig:mean 	0.67897819541395
scalar Network.dyn_peer[314] 	lookupHopsSig:mean 	22.5
scalar Network.dyn_peer[315] 	lookupTimeSig:mean 	1.8
scalar Network.dyn_peer[315] 	lookupStabilitySig:mean 	0.71600648611784
scalar Network.dyn_peer[315] 	lookupHopsSig:mean 	17.2
scalar Network.dyn_peer[316] 	lookupTimeSig:mean 	2.1714285714286
scalar Network.dyn_peer[316] 	lookupStabilitySig:mean 	0.89982975713376
scalar Network.dyn_peer[316] 	lookupHopsSig:mean 	20.857142857143
scalar Network.dyn_peer[317] 	lookupTimeSig:mean 	2.0142857142857
scalar Network.dyn_peer[317] 	lookupStabilitySig:mean 	0.75657208556575
scalar Network.dyn_peer[317] 	lookupHopsSig:mean 	19.285714285714
scalar Network.dyn_peer[318] 	lookupTimeSig:mean 	2.825
scalar Network.dyn_peer[318] 	lookupStabilitySig:mean 	0.59910052083433
scalar Network.dyn_peer[318] 	lookupHopsSig:mean 	27.5
scalar Network.dyn_peer[319] 	lookupTimeSig:mean 	2.2
scalar Network.dyn_peer[319] 	lookupStabilitySig:mean 	0.76791849583387
scalar Network.dyn_peer[319] 	lookupHopsSig:mean 	21.2
scalar Network.dyn_peer[320] 	lookupTimeSig:mean 	2.1
scalar Network.dyn_peer[320] 	lookupStabilitySig:mean 	0.52048428962007
scalar Network.dyn_peer[320] 	lookupHopsSig:mean 	20.25
scalar Network.dyn_peer[321] 	lookupTimeSig:mean 	1.6
scalar Network.dyn_peer[321] 	lookupStabilitySig:mean 	0.50645861681551
scalar Network.dyn_peer[321] 	lookupHopsSig:mean 	15.25
scalar Network.dyn_peer[322] 	lookupTimeSig:mean 	2.0714285714286
scalar Network.dyn_peer[322] 	lookupStabilitySig:mean 	0.79340264839785
scalar Network.dyn_peer[322] 	lookupHopsSig:mean 	19.857142857143
scalar Network.dyn_peer[323] 	lookupTimeSig:mean 	1.6625
scalar Network.dyn_peer[323] 	lookupStabilitySig:mean 	0.70220278098714
scalar Network.dyn_peer[323] 	lookupHopsSig:mean 	15.75
scalar Network.dyn_peer[324] 	lookupTimeSig:mean 	4.3
scalar Network.dyn_peer[324] 	lookupStabilitySig:mean 	0.45143048465252
scalar Network.dyn_peer[324] 	lookupHopsSig:mean 	42.5
scalar Network.dyn_peer[325] 	lookupTimeSig:mean 	2.15
scalar Network.dyn_peer[325] 	lookupStabilitySig:mean 	0.95503775973339
scalar Network.dyn_peer[325] 	lookupHopsSig:mean 	20.625
scalar Network.dyn_peer[326] 	lookupTimeSig:mean 	2.1
scalar Network.dyn_peer[326] 	lookupStabilitySig:mean 	0.68423153460026
scalar Network.dyn_peer[326] 	lookupHopsSig:mean 	20.333333333333
scalar Network.dyn_peer[327] 	lookupTimeSig:mean 	2.7
scalar Network.dyn_peer[327] 	lookupStabilitySig:mean 	0.80235595442355
scalar Network.dyn_peer[327] 	lookupHopsSig:mean 	26.333333333333
scalar Network.dyn_peer[328] 	lookupTimeSig:mean 	3.06
scalar Network.dyn_peer[328] 	lookupStabilitySig:mean 	0.90992342717946
scalar Network.dyn_peer[328] 	lookupHopsSig:mean 	29.8
scalar Network.dyn_peer[329] 	lookupTimeSig:mean 	2.04
scalar Network.dyn_peer[329] 	lookupStabilitySig:mean 	0.59934909194708
scalar Network.dyn_peer[329] 	lookupHopsSig:mean 	19.6
scalar Network.dyn_peer[330] 	lookupTimeSig:mean 	1.7
scalar Network.dyn_peer[330] 	lookupStabilitySig:mean 	0.84754966665059
scalar Network.dyn_peer[330] 	lookupHopsSig:mean 	16.111111111111
scalar Network.dyn_peer[331] 	lookupTimeSig:mean 	4.35
scalar Network.dyn_peer[331] 	lookupStabilitySig:mean 	0.77681159228086
scalar Network.dyn_peer[331] 	lookupHopsSig:mean 	43
scalar Network.dyn_peer[332] 	lookupTimeSig:mean 	2.0571428571429
scalar Network.dyn_peer[332] 	lookupStabilitySig:mean 	0.90956562797406
scalar Network.dyn_peer[332] 	lookupHopsSig:mean 	19.714285714286
scalar Network.dyn_peer[333] 	lookupTimeSig:mean 	2.2
scalar Network.dyn_peer[333] 	lookupStabilitySig:mean 	0.8353409362543
scalar Network.dyn_peer[333] 	lookupHopsSig:mean 	21.111111111111
scalar Network.dyn_peer[334] 	lookupTimeSig:mean 	1.3333333333333
scalar Network.dyn_peer[334] 	lookupStabilitySig:mean 	0.14117643733819
scalar Network.dyn_peer[334] 	lookupHopsSig:mean 	12.666666666667
scalar Network.dyn_peer[335] 	lookupTimeSig:mean 	1.7272727272727
scalar Network.dyn_peer[335] 	lookupStabilitySig:mean 	0.9304844443263
scalar Network.dyn_peer[335] 	lookupHopsSig:mean 	16.363636363636
scalar Network.dyn_peer[336] 	lookupTimeSig:mean 	1.8857142857143
scalar Network.dyn_peer[336] 	lookupStabilitySig:mean 	0.71563023754529
scalar Network.dyn_peer[336] 	lookupHopsSig:mean 	18
scalar Network.dyn_peer[337] 	lookupTimeSig:mean 	2.2857142857143
scalar Network.dyn_peer[337] 	lookupStabilitySig:mean 	0.67809717982475
scalar Network.dyn_peer[337] 	lookupHopsSig:mean 	22
scalar Network.dyn_peer[338] 	lookupTimeSig:mean 	4.3
scalar Network.dyn_peer[338] 	lookupStabilitySig:mean 	0.59405265748501
scalar Network.dyn_peer[338] 	lookupHopsSig:mean 	42.5
scalar Network.dyn_peer[339] 	lookupTimeSig:mean 	1.725
scalar Network.dyn_peer[339] 	lookupStabilitySig:mean 	0.48608138039708
scalar Network.dyn_peer[339] 	lookupHopsSig:mean 	16.5
scalar Network.dyn_peer[340] 	lookupTimeSig:mean 	0.96666666666667
scalar Network.dyn_peer[340] 	lookupStabilitySig:mean 	0.52028313030799
scalar Network.dyn_peer[340] 	lookupHopsSig:mean 	8.8333333333333
scalar Network.dyn_peer[341] 	lookupTimeSig:mean 	1.65
scalar Network.dyn_peer[341] 	lookupStabilitySig:mean 	0.68527130328584
scalar Network.dyn_peer[341] 	lookupHopsSig:mean 	15.625
scalar Network.dyn_peer[342] 	lookupTimeSig:mean 	2.5636363636364
scalar Network.dyn_peer[342] 	lookupStabilitySig:mean 	0.96094138971107
scalar Network.dyn_peer[342] 	lookupHopsSig:mean 	24.727272727273
scalar Network.dyn_peer[343] 	lookupTimeSig:mean 	2.125
scalar Network.dyn_peer[343] 	lookupStabilitySig:mean 	0.58259830251336
scalar Network.dyn_peer[343] 	lookupHopsSig:mean 	20.5
scalar Network.dyn_peer[344] 	lookupTimeSig:mean 	2.8666666666667
scalar Network.dyn_peer[344] 	lookupStabilitySig:mean 	0.58346832543612
scalar Network.dyn_peer[344] 	lookupHopsSig:mean 	28
scalar Network.dyn_peer[345] 	lookupTimeSig:mean 	2.6
scalar Network.dyn_peer[345] 	lookupStabilitySig:mean 	0.70524657098576
scalar Network.dyn_peer[345] 	lookupHopsSig:mean 	25.25
scalar Network.dyn_peer[346] 	lookupTimeSig:mean 	2.0222222222222
scalar Network.dyn_peer[346] 	lookupStabilitySig:mean 	0.91544309424029
scalar Network.dyn_peer[346] 	lookupHopsSig:mean 	19.333333333333
scalar Network.dyn_peer[347] 	lookupTimeSig:mean 	2.2
scalar Network.dyn_peer[347] 	lookupStabilitySig:mean 	0.21914948026339
scalar Network.dyn_peer[347] 	lookupHopsSig:mean 	21.333333333333
scalar Network.dyn_peer[348] 	lookupTimeSig:mean 	1.9
scalar Network.dyn_peer[348] 	lookupStabilitySig:mean 	0.77967636580579
scalar Network.dyn_peer[348] 	lookupHopsSig:mean 	18.1
scalar Network.dyn_peer[349] 	lookupTimeSig:mean 	0.6
scalar Network.dyn_peer[349] 	lookupStabilitySig:mean 	0.48924241662025
scalar Network.dyn_peer[349] 	lookupHopsSig:mean 	5.2
scalar Network.dyn_peer[350] 	lookupTimeSig:mean 	1.675
scalar Network.dyn_peer[350] 	lookupStabilitySig:mean 	0.56457181274891
scalar Network.dyn_peer[350] 	lookupHopsSig:mean 	16
scalar Network.dyn_peer[351] 	lookupTimeSig:mean 	1.5444444444444
scalar Network.dyn_peer[351] 	lookupStabilitySig:mean 	0.76186532496164
scalar Network.dyn_peer[351] 	lookupHopsSig:mean 	14.555555555556
scalar Network.dyn_peer[352] 	lookupTimeSig:mean 	3.8666666666667
scalar Network.dyn_peer[352] 	lookupStabilitySig:mean 	0.86840996270378
scalar Network.dyn_peer[352] 	lookupHopsSig:mean 	38
scalar Network.dyn_peer[353] 	lookupTimeSig:mean 	1.91
scalar Network.dyn_peer[353] 	lookupStabilitySig:mean 	0.79776800237596
scalar Network.dyn_peer[353] 	lookupHopsSig:mean 	18.2
scalar Network.dyn_peer[354] 	lookupTimeSig:mean 	2.18
scalar Network.dyn_peer[354] 	lookupStabilitySig:mean 	0.96261871866882
scalar Network.dyn_peer[354] 	lookupHopsSig:mean 	20.9
scalar Network.dyn_peer[355] 	lookupTimeSig:mean 	2.22
scalar Network.dyn_peer[355] 	lookupStabilitySig:mean 	0.7761637635529
scalar Network.dyn_peer[355] 	lookupHopsSig:mean 	21.4
scalar Network.dyn_peer[356] 	lookupTimeSig:mean 	1.1666666666667
scalar Network.dyn_peer[356] 	lookupStabilitySig:mean 	0.78601779850821
scalar Network.dyn_peer[356] 	lookupHopsSig:mean 	10.777777777778
scalar Network.dyn_peer[357] 	lookupTimeSig:mean 	2.325
scalar Network.dyn_peer[357] 	lookupStabilitySig:mean 	0.56431610137224
scalar Network.dyn_peer[357] 	lookupHopsSig:mean 	22.5
scalar Network.dyn_peer[358] 	lookupTimeSig:mean 	1.875
scalar Network.dyn_peer[358] 	lookupStabilitySig:mean 	0.91799632820766
scalar Network.dyn_peer[358] 	lookupHopsSig:mean 	17.875
scalar Network.dyn_peer[359] 	lookupTimeSig:mean 	1.4428571428571
scalar Network.dyn_peer[359] 	lookupStabilitySig:mean 	0.67941055579909
scalar Network.dyn_peer[359] 	lookupHopsSig:mean 	13.571428571429
scalar Network.dyn_peer[360] 	lookupTimeSig:mean 	2.4666666666667
scalar Network.dyn_peer[360] 	lookupStabilitySig:mean 	0.33137089014053
scalar Network.dyn_peer[360] 	lookupHopsSig:mean 	24
scalar Network.dyn_peer[361] 	lookupTimeSig:mean 	1.9428571428571
scalar Network.dyn_peer[361] 	lookupStabilitySig:mean 	0.9039367732725
scalar Network.dyn_peer[361] 	lookupHopsSig:mean 	18.571428571429
scalar Network.dyn_peer[362] 	lookupTimeSig:mean 	1.725
scalar Network.dyn_peer[362] 	lookupStabilitySig:mean 	0.88544739561621
scalar Network.dyn_peer[362] 	lookupHopsSig:mean 	16.375
scalar Network.dyn_peer[363] 	lookupTimeSig:mean 	2.4571428571429
scalar Network.dyn_peer[363] 	lookupStabilitySig:mean 	0.73385488201997
scalar Network.dyn_peer[363] 	lookupHopsSig:mean 	23.714285714286
scalar Network.dyn_peer[364] 	lookupTimeSig:mean 	1.6666666666667
scalar Network.dyn_peer[364] 	lookupStabilitySig:mean 	0.86951076477352
scalar Network.dyn_peer[364] 	lookupHopsSig:mean 	15.777777777778
scalar Network.dyn_peer[365] 	lookupTimeSig:mean 	2.525
scalar Network.dyn_peer[365] 	lookupStabilitySig:mean 	0.81720825191587
scalar Network.dyn_peer[365] 	lookupHopsSig:mean 	24.5
scalar Network.dyn_peer[366] 	lookupTimeSig:mean 	3.6333333333333
scalar Network.dyn_peer[366] 	lookupStabilitySig:mean 	0.72204246309896
scalar Network.dyn_peer[366] 	lookupHopsSig:mean 	35.666666666667
scalar Network.dyn_peer[367] 	lookupTimeSig:mean 	1.6333333333333
scalar Network.dyn_peer[367] 	lookupStabilitySig:mean 	0.39706467837095
scalar Network.dyn_peer[367] 	lookupHopsSig:mean 	15.666666666667
scalar Network.dyn_peer[368] 	lookupTimeSig:mean 	2.6
scalar Network.dyn_peer[368] 	lookupStabilitySig:mean 	0.84887638734654
scalar Network.dyn_peer[368] 	lookupHopsSig:mean 	25.25
scalar Network.dyn_peer[369] 	lookupTimeSig:mean 	2.1
scalar Network.dyn_peer[369] 	lookupStabilitySig:mean 	0.88065898045897
scalar Network.dyn_peer[369] 	lookupHopsSig:mean 	20.142857142857
scalar Network.dyn_peer[370] 	lookupTimeSig:mean 	1.6
scalar Network.dyn_peer[370] 	lookupStabilitySig:mean 	0.43160931020975
scalar Network.dyn_peer[370] 	lookupHopsSig:mean 	15.2
scalar Network.dyn_peer[371] 	lookupTimeSig:mean 	2.2666666666667
scalar Network.dyn_peer[371] 	lookupStabilitySig:mean 	0.65579219907522
scalar Network.dyn_peer[371] 	lookupHopsSig:mean 	22
scalar Network.dyn_peer[372] 	lookupTimeSig:mean 	1.52
scalar Network.dyn_peer[372] 	lookupStabilitySig:mean 	0.78466319739819
scalar Network.dyn_peer[372] 	lookupHopsSig:mean 	14.4
scalar Network.dyn_peer[373] 	lookupTimeSig:mean 	1.3875
scalar Network.dyn_peer[373] 	lookupStabilitySig:mean 	0.73123630974442
scalar Network.dyn_peer[373] 	lookupHopsSig:mean 	13
scalar Network.dyn_peer[374] 	lookupTimeSig:mean 	2.4428571428571
scalar Network.dyn_peer[374] 	lookupStabilitySig:mean 	0.86487895223711
scalar Network.dyn_peer[374] 	lookupHopsSig:mean 	23.571428571429
scalar Network.dyn_peer[375] 	lookupTimeSig:mean 	2.85
scalar Network.dyn_peer[375] 	lookupStabilitySig:mean 	-0.010461777448654
scalar Network.dyn_peer[375] 	lookupHopsSig:mean 	28
scalar Network.dyn_peer[376] 	lookupTimeSig:mean 	1.4666666666667
scalar Network.dyn_peer[376] 	lookupStabilitySig:mean 	0.9257839787234
scalar Network.dyn_peer[376] 	lookupHopsSig:mean 	13.777777777778
scalar Network.dyn_peer[377] 	lookupTimeSig:mean 	1.2666666666667
scalar Network.dyn_peer[377] 	lookupStabilitySig:mean 	0.74535652663973
scalar Network.dyn_peer[377] 	lookupHopsSig:mean 	11.777777777778
scalar Network.dyn_peer[378] 	lookupTimeSig:mean 	2.34
scalar Network.dyn_peer[378] 	lookupStabilitySig:mean 	0.60519299432635
scalar Network.dyn_peer[378] 	lookupHopsSig:mean 	22.6
scalar Network.dyn_peer[379] 	lookupTimeSig:mean 	2.3333333333333
scalar Network.dyn_peer[379] 	lookupStabilitySig:mean 	0.93222357161964
scalar Network.dyn_peer[379] 	lookupHopsSig:mean 	22.5
scalar Network.dyn_peer[380] 	lookupTimeSig:mean 	1.7090909090909
scalar Network.dyn_peer[380] 	lookupStabilitySig:mean 	0.9344193269922
scalar Network.dyn_peer[380] 	lookupHopsSig:mean 	16.181818181818
scalar Network.dyn_peer[381] 	lookupTimeSig:mean 	2.025
scalar Network.dyn_peer[381] 	lookupStabilitySig:mean 	0.89663252106402
scalar Network.dyn_peer[381] 	lookupHopsSig:mean 	19.375
scalar Network.dyn_peer[382] 	lookupTimeSig:mean 	1.75
scalar Network.dyn_peer[382] 	lookupStabilitySig:mean 	0.62138755681614
scalar Network.dyn_peer[382] 	lookupHopsSig:mean 	16.666666666667
scalar Network.dyn_peer[383] 	lookupTimeSig:mean 	2.95
scalar Network.dyn_peer[383] 	lookupStabilitySig:mean 	0.84842313360423
scalar Network.dyn_peer[383] 	lookupHopsSig:mean 	28.75
scalar Network.dyn_peer[384] 	lookupTimeSig:mean 	3.25
scalar Network.dyn_peer[384] 	lookupStabilitySig:mean 	0.91981230070814
scalar Network.dyn_peer[384] 	lookupHopsSig:mean 	31.75
scalar Network.dyn_peer[385] 	lookupTimeSig:mean 	1.6636363636364
scalar Network.dyn_peer[385] 	lookupStabilitySig:mean 	0.77886637198654
scalar Network.dyn_peer[385] 	lookupHopsSig:mean 	15.727272727273
scalar Network.dyn_peer[386] 	lookupTimeSig:mean 	1.45
scalar Network.dyn_peer[386] 	lookupStabilitySig:mean 	0.84587365978708
scalar Network.dyn_peer[386] 	lookupHopsSig:mean 	13.666666666667
scalar Network.dyn_peer[387] 	lookupTimeSig:mean 	2.15
scalar Network.dyn_peer[387] 	lookupStabilitySig:mean 	0.54670152999461
scalar Network.dyn_peer[387] 	lookupHopsSig:mean 	20.75
scalar Network.dyn_peer[388] 	lookupTimeSig:mean 	1.45
scalar Network.dyn_peer[388] 	lookupStabilitySig:mean 	0.82109980954556
scalar Network.dyn_peer[388] 	lookupHopsSig:mean 	13.6
scalar Network.dyn_peer[389] 	lookupTimeSig:mean 	2.15
scalar Network.dyn_peer[389] 	lookupStabilitySig:mean 	0.90464449549715
scalar Network.dyn_peer[389] 	lookupHopsSig:mean 	20.666666666667
scalar Network.dyn_peer[390] 	lookupTimeSig:mean 	2.95
scalar Network.dyn_peer[390] 	lookupStabilitySig:mean 	0.73439888376743
scalar Network.dyn_peer[390] 	lookupHopsSig:mean 	28.75
scalar Network.dyn_peer[391] 	lookupTimeSig:mean 	1.0090909090909
scalar Network.dyn_peer[391] 	lookupStabilitySig:mean 	0.72457262424921
scalar Network.dyn_peer[391] 	lookupHopsSig:mean 	9.1818181818182
scalar Network.dyn_peer[392] 	lookupTimeSig:mean 	2.0125
scalar Network.dyn_peer[392] 	lookupStabilitySig:mean 	0.6637125024572
scalar Network.dyn_peer[392] 	lookupHopsSig:mean 	19.25
scalar Network.dyn_peer[393] 	lookupTimeSig:mean 	3.25
scalar Network.dyn_peer[393] 	lookupStabilitySig:mean 	0.52862256765366
scalar Network.dyn_peer[393] 	lookupHopsSig:mean 	31.75
scalar Network.dyn_peer[394] 	lookupTimeSig:mean 	2.6875
scalar Network.dyn_peer[394] 	lookupStabilitySig:mean 	0.94268535682932
scalar Network.dyn_peer[394] 	lookupHopsSig:mean 	26
scalar Network.dyn_peer[395] 	lookupTimeSig:mean 	2.475
scalar Network.dyn_peer[395] 	lookupStabilitySig:mean 	0.87284848140553
scalar Network.dyn_peer[395] 	lookupHopsSig:mean 	24
scalar Network.dyn_peer[396] 	lookupTimeSig:mean 	2.925
scalar Network.dyn_peer[396] 	lookupStabilitySig:mean 	0.79314383491874
scalar Network.dyn_peer[396] 	lookupHopsSig:mean 	28.5
scalar Network.dyn_peer[397] 	lookupTimeSig:mean 	2.5
scalar Network.dyn_peer[397] 	lookupStabilitySig:mean 	0.0016181468963623
scalar Network.dyn_peer[397] 	lookupHopsSig:mean 	24.5
scalar Network.dyn_peer[398] 	lookupTimeSig:mean 	2.35
scalar Network.dyn_peer[398] 	lookupStabilitySig:mean 	0.1277672201395
scalar Network.dyn_peer[398] 	lookupHopsSig:mean 	23
scalar Network.dyn_peer[399] 	lookupTimeSig:mean 	1.7777777777778
scalar Network.dyn_peer[399] 	lookupStabilitySig:mean 	0.8049846706498
scalar Network.dyn_peer[399] 	lookupHopsSig:mean 	16.888888888889
scalar Network.dyn_peer[400] 	lookupTimeSig:mean 	1.9
scalar Network.dyn_peer[400] 	lookupStabilitySig:mean 	0.64285012036562
scalar Network.dyn_peer[400] 	lookupHopsSig:mean 	18.2
scalar Network.dyn_peer[401] 	lookupTimeSig:mean 	3.15
scalar Network.dyn_peer[401] 	lookupStabilitySig:mean 	2.2351741790771e-08
scalar Network.dyn_peer[401] 	lookupHopsSig:mean 	31
scalar Network.dyn_peer[402] 	lookupTimeSig:mean 	1.15
scalar Network.dyn_peer[402] 	lookupStabilitySig:mean 	0.34079511277378
scalar Network.dyn_peer[402] 	lookupHopsSig:mean 	10.75
scalar Network.dyn_peer[403] 	lookupTimeSig:mean 	1.2333333333333
scalar Network.dyn_peer[403] 	lookupStabilitySig:mean 	0.17590225239595
scalar Network.dyn_peer[403] 	lookupHopsSig:mean 	11.666666666667
scalar Network.dyn_peer[404] 	lookupTimeSig:mean 	2.25
scalar Network.dyn_peer[404] 	lookupStabilitySig:mean 	0.41190241463482
scalar Network.dyn_peer[404] 	lookupHopsSig:mean 	21.75
scalar Network.dyn_peer[405] 	lookupTimeSig:mean 	1.5222222222222
scalar Network.dyn_peer[405] 	lookupStabilitySig:mean 	0.80722514757266
scalar Network.dyn_peer[405] 	lookupHopsSig:mean 	14.333333333333
scalar Network.dyn_peer[406] 	lookupTimeSig:mean 	2.25
scalar Network.dyn_peer[406] 	lookupStabilitySig:mean 	0.49545315280557
scalar Network.dyn_peer[406] 	lookupHopsSig:mean 	21.75
scalar Network.dyn_peer[407] 	lookupTimeSig:mean 	2.8363636363636
scalar Network.dyn_peer[407] 	lookupStabilitySig:mean 	0.95852525578812
scalar Network.dyn_peer[407] 	lookupHopsSig:mean 	27.454545454545
scalar Network.dyn_peer[408] 	lookupTimeSig:mean 	1.8538461538462
scalar Network.dyn_peer[408] 	lookupStabilitySig:mean 	0.80190103386457
scalar Network.dyn_peer[408] 	lookupHopsSig:mean 	17.615384615385
scalar Network.dyn_peer[409] 	lookupTimeSig:mean 	2.2857142857143
scalar Network.dyn_peer[409] 	lookupStabilitySig:mean 	0.7145784771336
scalar Network.dyn_peer[409] 	lookupHopsSig:mean 	22
scalar Network.dyn_peer[410] 	lookupTimeSig:mean 	1.4125
scalar Network.dyn_peer[410] 	lookupStabilitySig:mean 	0.73850940284319
scalar Network.dyn_peer[410] 	lookupHopsSig:mean 	13.25
scalar Network.dyn_peer[411] 	lookupTimeSig:mean 	2.7333333333333
scalar Network.dyn_peer[411] 	lookupStabilitySig:mean 	0.60908807565769
scalar Network.dyn_peer[411] 	lookupHopsSig:mean 	26.666666666667
scalar Network.dyn_peer[412] 	lookupTimeSig:mean 	2.025
scalar Network.dyn_peer[412] 	lookupStabilitySig:mean 	0.94677421177039
scalar Network.dyn_peer[412] 	lookupHopsSig:mean 	19.375
scalar Network.dyn_peer[413] 	lookupTimeSig:mean 	4.4333333333333
scalar Network.dyn_peer[413] 	lookupStabilitySig:mean 	0.79697426781058
scalar Network.dyn_peer[413] 	lookupHopsSig:mean 	43.666666666667
scalar Network.dyn_peer[414] 	lookupTimeSig:mean 	1.5714285714286
scalar Network.dyn_peer[414] 	lookupStabilitySig:mean 	0.87351211399904
scalar Network.dyn_peer[414] 	lookupHopsSig:mean 	14.857142857143
scalar Network.dyn_peer[415] 	lookupTimeSig:mean 	2.1857142857143
scalar Network.dyn_peer[415] 	lookupStabilitySig:mean 	0.7106758317511
scalar Network.dyn_peer[415] 	lookupHopsSig:mean 	21
scalar Network.dyn_peer[416] 	lookupTimeSig:mean 	2.3428571428571
scalar Network.dyn_peer[416] 	lookupStabilitySig:mean 	0.87919247190335
scalar Network.dyn_peer[416] 	lookupHopsSig:mean 	22.571428571429
scalar Network.dyn_peer[417] 	lookupTimeSig:mean 	1.66
scalar Network.dyn_peer[417] 	lookupStabilitySig:mean 	0.58524889610708
scalar Network.dyn_peer[417] 	lookupHopsSig:mean 	15.8
scalar Network.dyn_peer[418] 	lookupTimeSig:mean 	2.26
scalar Network.dyn_peer[418] 	lookupStabilitySig:mean 	0.75551752895117
scalar Network.dyn_peer[418] 	lookupHopsSig:mean 	21.8
scalar Network.dyn_peer[419] 	lookupTimeSig:mean 	1.5272727272727
scalar Network.dyn_peer[419] 	lookupStabilitySig:mean 	0.94273778008805
scalar Network.dyn_peer[419] 	lookupHopsSig:mean 	14.363636363636
scalar Network.dyn_peer[420] 	lookupTimeSig:mean 	1.9857142857143
scalar Network.dyn_peer[420] 	lookupStabilitySig:mean 	0.89713682686644
[...]
scalar Network.dyn_peer[896] 	lookupStabilitySig:mean 	0.84938792077204
scalar Network.dyn_peer[896] 	lookupHopsSig:mean 	31.666666666667
scalar Network.dyn_peer[897] 	lookupTimeSig:mean 	1.6666666666667
scalar Network.dyn_peer[897] 	lookupStabilitySig:mean 	0.89501790112505
scalar Network.dyn_peer[897] 	lookupHopsSig:mean 	15.833333333333
scalar Network.dyn_peer[898] 	lookupTimeSig:mean 	1.725
scalar Network.dyn_peer[898] 	lookupStabilitySig:mean 	0.83779837447219
scalar Network.dyn_peer[898] 	lookupHopsSig:mean 	16.5
scalar Network.dyn_peer[899] 	lookupTimeSig:mean 	1.1
scalar Network.dyn_peer[899] 	lookupStabilitySig:mean 	0.49889121949673
scalar Network.dyn_peer[899] 	lookupHopsSig:mean 	10.333333333333
scalar Network.dyn_peer[900] 	lookupTimeSig:mean 	2.1571428571429
scalar Network.dyn_peer[900] 	lookupStabilitySig:mean 	0.88112324835466
scalar Network.dyn_peer[900] 	lookupHopsSig:mean 	20.714285714286
scalar Network.dyn_peer[901] 	lookupTimeSig:mean 	1.9363636363636
scalar Network.dyn_peer[901] 	lookupStabilitySig:mean 	0.94490200662139
scalar Network.dyn_peer[901] 	lookupHopsSig:mean 	18.454545454545
scalar Network.dyn_peer[902] 	lookupTimeSig:mean 	1.6285714285714
scalar Network.dyn_peer[902] 	lookupStabilitySig:mean 	0.91196287010929
scalar Network.dyn_peer[902] 	lookupHopsSig:mean 	15.428571428571
scalar Network.dyn_peer[903] 	lookupTimeSig:mean 	1.7333333333333
scalar Network.dyn_peer[903] 	lookupStabilitySig:mean 	0.48699867973725
scalar Network.dyn_peer[903] 	lookupHopsSig:mean 	16.666666666667
scalar Network.dyn_peer[904] 	lookupTimeSig:mean 	1.3555555555556
scalar Network.dyn_peer[904] 	lookupStabilitySig:mean 	0.85376340104267
scalar Network.dyn_peer[904] 	lookupHopsSig:mean 	12.666666666667
scalar Network.dyn_peer[905] 	lookupTimeSig:mean 	6.7
scalar Network.dyn_peer[905] 	lookupStabilitySig:mean 	0.84167679771781
scalar Network.dyn_peer[905] 	lookupHopsSig:mean 	66.5
scalar Network.dyn_peer[906] 	lookupTimeSig:mean 	2.2
scalar Network.dyn_peer[906] 	lookupStabilitySig:mean 	0.83349502645433
scalar Network.dyn_peer[906] 	lookupHopsSig:mean 	21.2
scalar Network.dyn_peer[907] 	lookupTimeSig:mean 	1.4333333333333
scalar Network.dyn_peer[907] 	lookupStabilitySig:mean 	0.46995315452417
scalar Network.dyn_peer[907] 	lookupHopsSig:mean 	13.666666666667
scalar Network.dyn_peer[908] 	lookupTimeSig:mean 	2.425
scalar Network.dyn_peer[908] 	lookupStabilitySig:mean 	0.91316648770589
scalar Network.dyn_peer[908] 	lookupHopsSig:mean 	23.375
scalar Network.dyn_peer[909] 	lookupTimeSig:mean 	2.01
scalar Network.dyn_peer[909] 	lookupStabilitySig:mean 	0.8908620250877
scalar Network.dyn_peer[909] 	lookupHopsSig:mean 	19.2
scalar Network.dyn_peer[910] 	lookupTimeSig:mean 	2.7285714285714
scalar Network.dyn_peer[910] 	lookupStabilitySig:mean 	0.94542990930911
scalar Network.dyn_peer[910] 	lookupHopsSig:mean 	26.428571428571
scalar Network.dyn_peer[911] 	lookupTimeSig:mean 	3.8
scalar Network.dyn_peer[911] 	lookupStabilitySig:mean 	0.4050436342756
scalar Network.dyn_peer[911] 	lookupHopsSig:mean 	37.333333333333
scalar Network.dyn_peer[912] 	lookupTimeSig:mean 	1.8133333333333
scalar Network.dyn_peer[912] 	lookupStabilitySig:mean 	0.94907592060044
scalar Network.dyn_peer[912] 	lookupHopsSig:mean 	17.2
scalar Network.dyn_peer[913] 	lookupTimeSig:mean 	5.1
scalar Network.dyn_peer[913] 	lookupStabilitySig:mean 	0.66236016899347
scalar Network.dyn_peer[913] 	lookupHopsSig:mean 	50.5
scalar Network.dyn_peer[914] 	lookupTimeSig:mean 	0.8
scalar Network.dyn_peer[914] 	lookupStabilitySig:mean 	0.47857141494751
scalar Network.dyn_peer[914] 	lookupHopsSig:mean 	7.3333333333333
scalar Network.dyn_peer[915] 	lookupTimeSig:mean 	1.5285714285714
scalar Network.dyn_peer[915] 	lookupStabilitySig:mean 	0.6959691265864
scalar Network.dyn_peer[915] 	lookupHopsSig:mean 	14.428571428571
scalar Network.dyn_peer[916] 	lookupTimeSig:mean 	1.5833333333333
scalar Network.dyn_peer[916] 	lookupStabilitySig:mean 	0.88036911810438
scalar Network.dyn_peer[916] 	lookupHopsSig:mean 	15
scalar Network.dyn_peer[917] 	lookupTimeSig:mean 	2.24
scalar Network.dyn_peer[917] 	lookupStabilitySig:mean 	0.60550131946802
scalar Network.dyn_peer[917] 	lookupHopsSig:mean 	21.6
scalar Network.dyn_peer[918] 	lookupTimeSig:mean 	1.8625
scalar Network.dyn_peer[918] 	lookupStabilitySig:mean 	0.92028951214161
scalar Network.dyn_peer[918] 	lookupHopsSig:mean 	17.75
scalar Network.dyn_peer[919] 	lookupTimeSig:mean 	1.4545454545455
scalar Network.dyn_peer[919] 	lookupStabilitySig:mean 	0.94322324899787
scalar Network.dyn_peer[919] 	lookupHopsSig:mean 	13.636363636364
scalar Network.dyn_peer[920] 	lookupTimeSig:mean 	1.5125
scalar Network.dyn_peer[920] 	lookupStabilitySig:mean 	0.78716705064289
scalar Network.dyn_peer[920] 	lookupHopsSig:mean 	14.25
scalar Network.dyn_peer[921] 	lookupTimeSig:mean 	1.8333333333333
scalar Network.dyn_peer[921] 	lookupStabilitySig:mean 	0.83737539748351
scalar Network.dyn_peer[921] 	lookupHopsSig:mean 	17.5
scalar Network.dyn_peer[922] 	lookupTimeSig:mean 	3.4
scalar Network.dyn_peer[922] 	lookupStabilitySig:mean 	0.78792517445982
scalar Network.dyn_peer[922] 	lookupHopsSig:mean 	33.5
scalar Network.dyn_peer[923] 	lookupTimeSig:mean 	2.2333333333333
scalar Network.dyn_peer[923] 	lookupStabilitySig:mean 	0.64022445554535
scalar Network.dyn_peer[923] 	lookupHopsSig:mean 	21.666666666667
scalar Network.dyn_peer[924] 	lookupTimeSig:mean 	3.2333333333333
scalar Network.dyn_peer[924] 	lookupStabilitySig:mean 	0.87936816488703
scalar Network.dyn_peer[924] 	lookupHopsSig:mean 	31.666666666667
scalar Network.dyn_peer[925] 	lookupTimeSig:mean 	1.7571428571429
scalar Network.dyn_peer[925] 	lookupStabilitySig:mean 	0.94527808749782
scalar Network.dyn_peer[925] 	lookupHopsSig:mean 	16.714285714286
scalar Network.dyn_peer[926] 	lookupTimeSig:mean 	3.2666666666667
scalar Network.dyn_peer[926] 	lookupStabilitySig:mean 	0.82217148567239
scalar Network.dyn_peer[926] 	lookupHopsSig:mean 	32
scalar Network.dyn_peer[927] 	lookupTimeSig:mean 	1.3214285714286
scalar Network.dyn_peer[927] 	lookupStabilitySig:mean 	0.92557134891727
scalar Network.dyn_peer[927] 	lookupHopsSig:mean 	12.285714285714
scalar Network.dyn_peer[928] 	lookupTimeSig:mean 	1.0666666666667
scalar Network.dyn_peer[928] 	lookupStabilitySig:mean 	0.86769072530377
scalar Network.dyn_peer[928] 	lookupHopsSig:mean 	9.7777777777778
scalar Network.dyn_peer[929] 	lookupTimeSig:mean 	2.34
scalar Network.dyn_peer[929] 	lookupStabilitySig:mean 	0.69261063951999
scalar Network.dyn_peer[929] 	lookupHopsSig:mean 	22.6
scalar Network.dyn_peer[930] 	lookupTimeSig:mean 	3.6
scalar Network.dyn_peer[930] 	lookupStabilitySig:mean 	0.19419376552105
scalar Network.dyn_peer[930] 	lookupHopsSig:mean 	35.5
scalar Network.dyn_peer[931] 	lookupTimeSig:mean 	2.1142857142857
scalar Network.dyn_peer[931] 	lookupStabilitySig:mean 	0.84490610805473
scalar Network.dyn_peer[931] 	lookupHopsSig:mean 	20.285714285714
scalar Network.dyn_peer[932] 	lookupTimeSig:mean 	1.975
scalar Network.dyn_peer[932] 	lookupStabilitySig:mean 	0.64707744494081
scalar Network.dyn_peer[932] 	lookupHopsSig:mean 	19
scalar Network.dyn_peer[933] 	lookupTimeSig:mean 	2.16
scalar Network.dyn_peer[933] 	lookupStabilitySig:mean 	0.77806322872639
scalar Network.dyn_peer[933] 	lookupHopsSig:mean 	20.8
scalar Network.dyn_peer[934] 	lookupTimeSig:mean 	2.0666666666667
scalar Network.dyn_peer[934] 	lookupStabilitySig:mean 	0.92352189320243
scalar Network.dyn_peer[934] 	lookupHopsSig:mean 	19.777777777778
scalar Network.dyn_peer[935] 	lookupTimeSig:mean 	2.5428571428571
scalar Network.dyn_peer[935] 	lookupStabilitySig:mean 	0.94112921852086
scalar Network.dyn_peer[935] 	lookupHopsSig:mean 	24.571428571429
scalar Network.dyn_peer[936] 	lookupTimeSig:mean 	1.975
scalar Network.dyn_peer[936] 	lookupStabilitySig:mean 	0.90535061441672
scalar Network.dyn_peer[936] 	lookupHopsSig:mean 	18.833333333333
scalar Network.dyn_peer[937] 	lookupTimeSig:mean 	1.1
scalar Network.dyn_peer[937] 	lookupStabilitySig:mean 	0.49410878618558
scalar Network.dyn_peer[937] 	lookupHopsSig:mean 	10.333333333333
scalar Network.dyn_peer[938] 	lookupTimeSig:mean 	1.6
scalar Network.dyn_peer[938] 	lookupStabilitySig:mean 	0.60219896137714
scalar Network.dyn_peer[938] 	lookupHopsSig:mean 	15.2
scalar Network.dyn_peer[939] 	lookupTimeSig:mean 	2.28
scalar Network.dyn_peer[939] 	lookupStabilitySig:mean 	0.80555876530707
scalar Network.dyn_peer[939] 	lookupHopsSig:mean 	22
scalar Network.dyn_peer[940] 	lookupTimeSig:mean 	2.26
scalar Network.dyn_peer[940] 	lookupStabilitySig:mean 	0.8798885203898
scalar Network.dyn_peer[940] 	lookupHopsSig:mean 	21.8
scalar Network.dyn_peer[941] 	lookupTimeSig:mean 	1.5428571428571
scalar Network.dyn_peer[941] 	lookupStabilitySig:mean 	0.76535275937723
scalar Network.dyn_peer[941] 	lookupHopsSig:mean 	14.571428571429
scalar Network.dyn_peer[942] 	lookupTimeSig:mean 	2.25
scalar Network.dyn_peer[942] 	lookupStabilitySig:mean 	0.8386886715889
scalar Network.dyn_peer[942] 	lookupHopsSig:mean 	21.75
scalar Network.dyn_peer[943] 	lookupTimeSig:mean 	1.9875
scalar Network.dyn_peer[943] 	lookupStabilitySig:mean 	0.94265731808264
scalar Network.dyn_peer[943] 	lookupHopsSig:mean 	19
scalar Network.dyn_peer[944] 	lookupTimeSig:mean 	1.875
scalar Network.dyn_peer[944] 	lookupStabilitySig:mean 	0.95978976663901
scalar Network.dyn_peer[944] 	lookupHopsSig:mean 	17.875
scalar Network.dyn_peer[945] 	lookupTimeSig:mean 	2.35
scalar Network.dyn_peer[945] 	lookupStabilitySig:mean 	0.84124252246693
scalar Network.dyn_peer[945] 	lookupHopsSig:mean 	22.75
scalar Network.dyn_peer[946] 	lookupTimeSig:mean 	1.2125
scalar Network.dyn_peer[946] 	lookupStabilitySig:mean 	0.75523312052246
scalar Network.dyn_peer[946] 	lookupHopsSig:mean 	11.25
scalar Network.dyn_peer[947] 	lookupTimeSig:mean 	3.6333333333333
scalar Network.dyn_peer[947] 	lookupStabilitySig:mean 	0.85790832775335
scalar Network.dyn_peer[947] 	lookupHopsSig:mean 	35.666666666667
scalar Network.dyn_peer[948] 	lookupTimeSig:mean 	3.1
scalar Network.dyn_peer[948] 	lookupStabilitySig:mean 	0.72734437137842
scalar Network.dyn_peer[948] 	lookupHopsSig:mean 	30.333333333333
scalar Network.dyn_peer[949] 	lookupTimeSig:mean 	1.4142857142857
scalar Network.dyn_peer[949] 	lookupStabilitySig:mean 	0.76374345352607
scalar Network.dyn_peer[949] 	lookupHopsSig:mean 	13.285714285714
scalar Network.dyn_peer[950] 	lookupTimeSig:mean 	2.1333333333333
scalar Network.dyn_peer[950] 	lookupStabilitySig:mean 	0.77697669714689
scalar Network.dyn_peer[950] 	lookupHopsSig:mean 	20.666666666667
scalar Network.dyn_peer[951] 	lookupTimeSig:mean 	1.8111111111111
scalar Network.dyn_peer[951] 	lookupStabilitySig:mean 	0.95080333337602
scalar Network.dyn_peer[951] 	lookupHopsSig:mean 	17.222222222222
scalar Network.dyn_peer[952] 	lookupTimeSig:mean 	2.75
scalar Network.dyn_peer[952] 	lookupStabilitySig:mean 	0.93928127340041
scalar Network.dyn_peer[952] 	lookupHopsSig:mean 	26.625
scalar Network.dyn_peer[953] 	lookupTimeSig:mean 	1.975
scalar Network.dyn_peer[953] 	lookupStabilitySig:mean 	0.90420837234706
scalar Network.dyn_peer[953] 	lookupHopsSig:mean 	18.875
scalar Network.dyn_peer[954] 	lookupTimeSig:mean 	1.24
scalar Network.dyn_peer[954] 	lookupStabilitySig:mean 	0.94304007804021
scalar Network.dyn_peer[954] 	lookupHopsSig:mean 	11.466666666667
scalar Network.dyn_peer[955] 	lookupTimeSig:mean 	2.5666666666667
scalar Network.dyn_peer[955] 	lookupStabilitySig:mean 	0.74854362305875
scalar Network.dyn_peer[955] 	lookupHopsSig:mean 	24.833333333333
scalar Network.dyn_peer[956] 	lookupTimeSig:mean 	1.175
scalar Network.dyn_peer[956] 	lookupStabilitySig:mean 	0.78991561249131
scalar Network.dyn_peer[956] 	lookupHopsSig:mean 	10.875
scalar Network.dyn_peer[957] 	lookupTimeSig:mean 	1.925
scalar Network.dyn_peer[957] 	lookupStabilitySig:mean 	0.91671631461941
scalar Network.dyn_peer[957] 	lookupHopsSig:mean 	18.375
scalar Network.dyn_peer[958] 	lookupTimeSig:mean 	3.7
scalar Network.dyn_peer[958] 	lookupStabilitySig:mean 	0.87156862641374
scalar Network.dyn_peer[958] 	lookupHopsSig:mean 	36.333333333333
scalar Network.dyn_peer[959] 	lookupTimeSig:mean 	2.0166666666667
scalar Network.dyn_peer[959] 	lookupStabilitySig:mean 	0.8302825964056
scalar Network.dyn_peer[959] 	lookupHopsSig:mean 	19.333333333333
scalar Network.dyn_peer[960] 	lookupTimeSig:mean 	1.5
scalar Network.dyn_peer[960] 	lookupStabilitySig:mean 	0.36378735303879
scalar Network.dyn_peer[960] 	lookupHopsSig:mean 	14.5
scalar Network.dyn_peer[961] 	lookupTimeSig:mean 	2.92
scalar Network.dyn_peer[961] 	lookupStabilitySig:mean 	0.69336849525571
scalar Network.dyn_peer[961] 	lookupHopsSig:mean 	28.4
scalar Network.dyn_peer[962] 	lookupTimeSig:mean 	2.3142857142857
scalar Network.dyn_peer[962] 	lookupStabilitySig:mean 	0.91759271613721
scalar Network.dyn_peer[962] 	lookupHopsSig:mean 	22.285714285714
scalar Network.dyn_peer[963] 	lookupTimeSig:mean 	2
scalar Network.dyn_peer[963] 	lookupStabilitySig:mean 	0.83013943731785
scalar Network.dyn_peer[963] 	lookupHopsSig:mean 	19.2
scalar Network.dyn_peer[964] 	lookupTimeSig:mean 	1.65
scalar Network.dyn_peer[964] 	lookupStabilitySig:mean 	0.73770925961435
scalar Network.dyn_peer[964] 	lookupHopsSig:mean 	15.666666666667
scalar Network.dyn_peer[965] 	lookupTimeSig:mean 	1.7285714285714
scalar Network.dyn_peer[965] 	lookupStabilitySig:mean 	0.78074564678328
scalar Network.dyn_peer[965] 	lookupHopsSig:mean 	16.428571428571
scalar Network.dyn_peer[966] 	lookupTimeSig:mean 	2.72
scalar Network.dyn_peer[966] 	lookupStabilitySig:mean 	0.87522190194577
scalar Network.dyn_peer[966] 	lookupHopsSig:mean 	26.4
scalar Network.dyn_peer[967] 	lookupTimeSig:mean 	1.2625
scalar Network.dyn_peer[967] 	lookupStabilitySig:mean 	0.76253671851009
scalar Network.dyn_peer[967] 	lookupHopsSig:mean 	11.75
scalar Network.dyn_peer[968] 	lookupTimeSig:mean 	1.8333333333333
scalar Network.dyn_peer[968] 	lookupStabilitySig:mean 	0.92272736209755
scalar Network.dyn_peer[968] 	lookupHopsSig:mean 	17.444444444444
scalar Network.dyn_peer[969] 	lookupTimeSig:mean 	2.6583333333333
scalar Network.dyn_peer[969] 	lookupStabilitySig:mean 	0.96421200335802
scalar Network.dyn_peer[969] 	lookupHopsSig:mean 	25.666666666667
scalar Network.dyn_peer[970] 	lookupTimeSig:mean 	2.1
scalar Network.dyn_peer[970] 	lookupStabilitySig:mean 	0.91022362570382
scalar Network.dyn_peer[970] 	lookupHopsSig:mean 	20.111111111111
scalar Network.dyn_peer[971] 	lookupTimeSig:mean 	1.5
scalar Network.dyn_peer[971] 	lookupStabilitySig:mean 	0.9432549287772
scalar Network.dyn_peer[971] 	lookupHopsSig:mean 	14.111111111111
scalar Network.dyn_peer[972] 	lookupTimeSig:mean 	2.9714285714286
scalar Network.dyn_peer[972] 	lookupStabilitySig:mean 	0.93478828675247
scalar Network.dyn_peer[972] 	lookupHopsSig:mean 	28.857142857143
scalar Network.dyn_peer[973] 	lookupTimeSig:mean 	0.86666666666667
scalar Network.dyn_peer[973] 	lookupStabilitySig:mean 	0.42080467691024
scalar Network.dyn_peer[973] 	lookupHopsSig:mean 	8
scalar Network.dyn_peer[974] 	lookupTimeSig:mean 	2.3
scalar Network.dyn_peer[974] 	lookupStabilitySig:mean 	0.90927397552878
scalar Network.dyn_peer[974] 	lookupHopsSig:mean 	22.142857142857
scalar Network.dyn_peer[975] 	lookupTimeSig:mean 	2.5666666666667
scalar Network.dyn_peer[975] 	lookupStabilitySig:mean 	0.52431210378806
scalar Network.dyn_peer[975] 	lookupHopsSig:mean 	25
scalar Network.dyn_peer[976] 	lookupTimeSig:mean 	2.0888888888889
scalar Network.dyn_peer[976] 	lookupStabilitySig:mean 	0.95079295419984
scalar Network.dyn_peer[976] 	lookupHopsSig:mean 	20
scalar Network.dyn_peer[977] 	lookupTimeSig:mean 	1.6090909090909
scalar Network.dyn_peer[977] 	lookupStabilitySig:mean 	0.90685949110511
scalar Network.dyn_peer[977] 	lookupHopsSig:mean 	15.181818181818
scalar Network.dyn_peer[978] 	lookupTimeSig:mean 	2.25
scalar Network.dyn_peer[978] 	lookupStabilitySig:mean 	0.68627966288477
scalar Network.dyn_peer[978] 	lookupHopsSig:mean 	21.75
scalar Network.dyn_peer[979] 	lookupTimeSig:mean 	1.1333333333333
scalar Network.dyn_peer[979] 	lookupStabilitySig:mean 	0.61806449790796
scalar Network.dyn_peer[979] 	lookupHopsSig:mean 	10.666666666667
scalar Network.dyn_peer[980] 	lookupTimeSig:mean 	1.6785714285714
scalar Network.dyn_peer[980] 	lookupStabilitySig:mean 	0.96749818993599
scalar Network.dyn_peer[980] 	lookupHopsSig:mean 	15.857142857143
scalar Network.dyn_peer[981] 	lookupTimeSig:mean 	2.5714285714286
scalar Network.dyn_peer[981] 	lookupStabilitySig:mean 	0.95346452375608
scalar Network.dyn_peer[981] 	lookupHopsSig:mean 	24.857142857143
scalar Network.dyn_peer[982] 	lookupTimeSig:mean 	1.8
scalar Network.dyn_peer[982] 	lookupStabilitySig:mean 	0.56681426521391
scalar Network.dyn_peer[982] 	lookupHopsSig:mean 	17.25
scalar Network.dyn_peer[983] 	lookupTimeSig:mean 	2.775
scalar Network.dyn_peer[983] 	lookupStabilitySig:mean 	0.52157236076891
scalar Network.dyn_peer[983] 	lookupHopsSig:mean 	27
scalar Network.dyn_peer[984] 	lookupTimeSig:mean 	3.3
scalar Network.dyn_peer[984] 	lookupStabilitySig:mean 	0.88539213929325
scalar Network.dyn_peer[984] 	lookupHopsSig:mean 	32.2
scalar Network.dyn_peer[985] 	lookupTimeSig:mean 	2.46
scalar Network.dyn_peer[985] 	lookupStabilitySig:mean 	0.66640673354268
scalar Network.dyn_peer[985] 	lookupHopsSig:mean 	23.8
scalar Network.dyn_peer[986] 	lookupTimeSig:mean 	1.15
scalar Network.dyn_peer[986] 	lookupStabilitySig:mean 	0.72517210617661
scalar Network.dyn_peer[986] 	lookupHopsSig:mean 	10.75
scalar Network.dyn_peer[987] 	lookupTimeSig:mean 	2.46
scalar Network.dyn_peer[987] 	lookupStabilitySig:mean 	0.90889732763171
scalar Network.dyn_peer[987] 	lookupHopsSig:mean 	23.8
scalar Network.dyn_peer[988] 	lookupTimeSig:mean 	2.26
scalar Network.dyn_peer[988] 	lookupStabilitySig:mean 	0.64707186855376
scalar Network.dyn_peer[988] 	lookupHopsSig:mean 	21.8
scalar Network.dyn_peer[989] 	lookupTimeSig:mean 	1.9666666666667
scalar Network.dyn_peer[989] 	lookupStabilitySig:mean 	0.49465730289618
scalar Network.dyn_peer[989] 	lookupHopsSig:mean 	19
scalar Network.dyn_peer[990] 	lookupTimeSig:mean 	4.05
scalar Network.dyn_peer[990] 	lookupStabilitySig:mean 	0.31860632449389
scalar Network.dyn_peer[990] 	lookupHopsSig:mean 	40
scalar Network.dyn_peer[991] 	lookupTimeSig:mean 	2.25
scalar Network.dyn_peer[991] 	lookupStabilitySig:mean 	0.5327563714236
scalar Network.dyn_peer[991] 	lookupHopsSig:mean 	21.75
scalar Network.dyn_peer[992] 	lookupTimeSig:mean 	1.96
scalar Network.dyn_peer[992] 	lookupStabilitySig:mean 	0.95749936786791
scalar Network.dyn_peer[992] 	lookupHopsSig:mean 	18.666666666667
scalar Network.dyn_peer[993] 	lookupTimeSig:mean 	2.4
scalar Network.dyn_peer[993] 	lookupStabilitySig:mean 	0.95359083251762
scalar Network.dyn_peer[993] 	lookupHopsSig:mean 	23.142857142857
scalar Network.dyn_peer[994] 	lookupTimeSig:mean 	2
scalar Network.dyn_peer[994] 	lookupStabilitySig:mean 	0.65334117412567
scalar Network.dyn_peer[994] 	lookupHopsSig:mean 	19.333333333333
scalar Network.dyn_peer[995] 	lookupTimeSig:mean 	1.225
scalar Network.dyn_peer[995] 	lookupStabilitySig:mean 	0.75644025858492
scalar Network.dyn_peer[995] 	lookupHopsSig:mean 	11.5
scalar Network.dyn_peer[996] 	lookupTimeSig:mean 	2.22
scalar Network.dyn_peer[996] 	lookupStabilitySig:mean 	0.68819871321321
scalar Network.dyn_peer[996] 	lookupHopsSig:mean 	21.4
scalar Network.dyn_peer[997] 	lookupTimeSig:mean 	2.1
scalar Network.dyn_peer[997] 	lookupStabilitySig:mean 	0.80595749020576
scalar Network.dyn_peer[997] 	lookupHopsSig:mean 	20.2
scalar Network.dyn_peer[998] 	lookupTimeSig:mean 	2.55
scalar Network.dyn_peer[998] 	lookupStabilitySig:mean 	0.89345191256143
scalar Network.dyn_peer[998] 	lookupHopsSig:mean 	24.75
scalar Network.dyn_peer[999] 	lookupTimeSig:mean 	3.5333333333333
scalar Network.dyn_peer[999] 	lookupStabilitySig:mean 	0.77703803653518
scalar Network.dyn_peer[999] 	lookupHopsSig:mean 	34.666666666667
scalar Network.churner 	inGoingSizeSig:mean 	499.000999001
