version 2
run Stability2-313-20130526-00:54:56-26640
attr configname Stability2
attr datetime 20130526-00:54:56
attr experiment Stability2
attr inifile omnetpp.ini
attr iterationvars $0=1000
attr iterationvars2 "$0=1000, $repetition=13"
attr measurement $0=1000
attr network Network
attr processid 26640
attr repetition 13
attr replication #13
attr resultdir results
attr runnumber 313
attr seedset 313

scalar Network.dyn_peer[0] 	lookupTimeSig:mean 	1.3666666666667
scalar Network.dyn_peer[0] 	lookupStabilitySig:mean 	0.43952098023146
scalar Network.dyn_peer[0] 	lookupHopsSig:mean 	12.833333333333
scalar Network.dyn_peer[1] 	lookupTimeSig:mean 	2.2
scalar Network.dyn_peer[1] 	lookupStabilitySig:mean 	0.58123169597238
scalar Network.dyn_peer[1] 	lookupHopsSig:mean 	21.2
scalar Network.dyn_peer[2] 	lookupTimeSig:mean 	1.5375
scalar Network.dyn_peer[2] 	lookupStabilitySig:mean 	0.65257240302162
scalar Network.dyn_peer[2] 	lookupHopsSig:mean 	14.5
scalar Network.dyn_peer[3] 	lookupTimeSig:mean 	0.83333333333333
scalar Network.dyn_peer[3] 	lookupStabilitySig:mean 	0.56798753188923
scalar Network.dyn_peer[3] 	lookupHopsSig:mean 	7.5
scalar Network.dyn_peer[4] 	lookupTimeSig:mean 	1.5285714285714
scalar Network.dyn_peer[4] 	lookupStabilitySig:mean 	0.60944977402687
scalar Network.dyn_peer[4] 	lookupHopsSig:mean 	14.428571428571
scalar Network.dyn_peer[5] 	lookupTimeSig:mean 	2.475
scalar Network.dyn_peer[5] 	lookupStabilitySig:mean 	0.46698211692274
scalar Network.dyn_peer[5] 	lookupHopsSig:mean 	24
scalar Network.dyn_peer[6] 	lookupTimeSig:mean 	1.5428571428571
scalar Network.dyn_peer[6] 	lookupStabilitySig:mean 	0.75131794757077
scalar Network.dyn_peer[6] 	lookupHopsSig:mean 	14.571428571429
scalar Network.dyn_peer[7] 	lookupTimeSig:mean 	1.95
scalar Network.dyn_peer[7] 	lookupStabilitySig:mean 	0.62498568743467
scalar Network.dyn_peer[7] 	lookupHopsSig:mean 	18.75
scalar Network.dyn_peer[8] 	lookupTimeSig:mean 	0.725
scalar Network.dyn_peer[8] 	lookupStabilitySig:mean 	0.32499999925494
scalar Network.dyn_peer[8] 	lookupHopsSig:mean 	6.5
scalar Network.dyn_peer[9] 	lookupTimeSig:mean 	3.6666666666667
scalar Network.dyn_peer[9] 	lookupStabilitySig:mean 	0.74490111569564
scalar Network.dyn_peer[9] 	lookupHopsSig:mean 	36
scalar Network.dyn_peer[10] 	lookupTimeSig:mean 	2.2
scalar Network.dyn_peer[10] 	lookupStabilitySig:mean 	-0.098640290399392
scalar Network.dyn_peer[10] 	lookupHopsSig:mean 	21.333333333333
scalar Network.dyn_peer[11] 	lookupTimeSig:mean 	1.58
scalar Network.dyn_peer[11] 	lookupStabilitySig:mean 	0.59041715115309
scalar Network.dyn_peer[11] 	lookupHopsSig:mean 	15
scalar Network.dyn_peer[12] 	lookupTimeSig:mean 	1.6545454545455
scalar Network.dyn_peer[12] 	lookupStabilitySig:mean 	0.88847962851551
scalar Network.dyn_peer[12] 	lookupHopsSig:mean 	15.636363636364
scalar Network.dyn_peer[13] 	lookupTimeSig:mean 	2.2777777777778
scalar Network.dyn_peer[13] 	lookupStabilitySig:mean 	0.63176224266903
scalar Network.dyn_peer[13] 	lookupHopsSig:mean 	21.888888888889
scalar Network.dyn_peer[14] 	lookupTimeSig:mean 	1.98
scalar Network.dyn_peer[14] 	lookupStabilitySig:mean 	0.43346435278654
scalar Network.dyn_peer[14] 	lookupHopsSig:mean 	19
scalar Network.dyn_peer[15] 	lookupTimeSig:mean 	2.45
scalar Network.dyn_peer[15] 	lookupStabilitySig:mean 	0.65189270908013
scalar Network.dyn_peer[15] 	lookupHopsSig:mean 	23.75
scalar Network.dyn_peer[16] 	lookupTimeSig:mean 	0.9
scalar Network.dyn_peer[16] 	lookupStabilitySig:mean 	0.47499282099307
scalar Network.dyn_peer[16] 	lookupHopsSig:mean 	8.1666666666667
scalar Network.dyn_peer[17] 	lookupTimeSig:mean 	1.9428571428571
scalar Network.dyn_peer[17] 	lookupStabilitySig:mean 	0.53904232382774
scalar Network.dyn_peer[17] 	lookupHopsSig:mean 	18.571428571429
scalar Network.dyn_peer[18] 	lookupTimeSig:mean 	2.06
scalar Network.dyn_peer[18] 	lookupStabilitySig:mean 	0.46622867882252
scalar Network.dyn_peer[18] 	lookupHopsSig:mean 	19.8
scalar Network.dyn_peer[19] 	lookupTimeSig:mean 	2.2
scalar Network.dyn_peer[19] 	lookupStabilitySig:mean 	0.34733480680734
scalar Network.dyn_peer[19] 	lookupHopsSig:mean 	21.25
scalar Network.dyn_peer[20] 	lookupTimeSig:mean 	1.8
scalar Network.dyn_peer[20] 	lookupStabilitySig:mean 	0.49913656339049
scalar Network.dyn_peer[20] 	lookupHopsSig:mean 	17.25
scalar Network.dyn_peer[21] 	lookupTimeSig:mean 	2.58
scalar Network.dyn_peer[21] 	lookupStabilitySig:mean 	0.39625388048589
scalar Network.dyn_peer[21] 	lookupHopsSig:mean 	25
scalar Network.dyn_peer[22] 	lookupTimeSig:mean 	1.66
scalar Network.dyn_peer[22] 	lookupStabilitySig:mean 	0.5912798576057
scalar Network.dyn_peer[22] 	lookupHopsSig:mean 	15.8
scalar Network.dyn_peer[23] 	lookupTimeSig:mean 	1.08
scalar Network.dyn_peer[23] 	lookupStabilitySig:mean 	0.5966155230999
scalar Network.dyn_peer[23] 	lookupHopsSig:mean 	10
scalar Network.dyn_peer[24] 	lookupTimeSig:mean 	1.225
scalar Network.dyn_peer[24] 	lookupStabilitySig:mean 	0.55469697713852
scalar Network.dyn_peer[24] 	lookupHopsSig:mean 	11.5
scalar Network.dyn_peer[25] 	lookupTimeSig:mean 	3.9666666666667
scalar Network.dyn_peer[25] 	lookupStabilitySig:mean 	0.73368236919244
scalar Network.dyn_peer[25] 	lookupHopsSig:mean 	39
scalar Network.dyn_peer[26] 	lookupTimeSig:mean 	1.94
scalar Network.dyn_peer[26] 	lookupStabilitySig:mean 	0.64578611329198
scalar Network.dyn_peer[26] 	lookupHopsSig:mean 	18.6
scalar Network.dyn_peer[27] 	lookupTimeSig:mean 	2.36
scalar Network.dyn_peer[27] 	lookupStabilitySig:mean 	0.91274361163378
scalar Network.dyn_peer[27] 	lookupHopsSig:mean 	22.8
scalar Network.dyn_peer[28] 	lookupTimeSig:mean 	1
scalar Network.dyn_peer[28] 	lookupStabilitySig:mean 	0.61320901795157
scalar Network.dyn_peer[28] 	lookupHopsSig:mean 	9.1428571428571
scalar Network.dyn_peer[29] 	lookupTimeSig:mean 	1.84
scalar Network.dyn_peer[29] 	lookupStabilitySig:mean 	0.69093591980636
scalar Network.dyn_peer[29] 	lookupHopsSig:mean 	17.6
scalar Network.dyn_peer[30] 	lookupTimeSig:mean 	1.7142857142857
scalar Network.dyn_peer[30] 	lookupStabilitySig:mean 	0.62714849745056
scalar Network.dyn_peer[30] 	lookupHopsSig:mean 	16.285714285714
scalar Network.dyn_peer[31] 	lookupTimeSig:mean 	1.4
scalar Network.dyn_peer[31] 	lookupStabilitySig:mean 	0.62095636278391
scalar Network.dyn_peer[31] 	lookupHopsSig:mean 	13.2
scalar Network.dyn_peer[32] 	lookupTimeSig:mean 	2.3909090909091
scalar Network.dyn_peer[32] 	lookupStabilitySig:mean 	0.84489550085908
scalar Network.dyn_peer[32] 	lookupHopsSig:mean 	23
scalar Network.dyn_peer[33] 	lookupTimeSig:mean 	1.65
scalar Network.dyn_peer[33] 	lookupStabilitySig:mean 	-0.41698843240738
scalar Network.dyn_peer[33] 	lookupHopsSig:mean 	16
scalar Network.dyn_peer[34] 	lookupTimeSig:mean 	2.0125
scalar Network.dyn_peer[34] 	lookupStabilitySig:mean 	0.85560381552204
scalar Network.dyn_peer[34] 	lookupHopsSig:mean 	19.25
scalar Network.dyn_peer[35] 	lookupTimeSig:mean 	2.3714285714286
scalar Network.dyn_peer[35] 	lookupStabilitySig:mean 	0.9484750725595
scalar Network.dyn_peer[35] 	lookupHopsSig:mean 	22.857142857143
scalar Network.dyn_peer[36] 	lookupTimeSig:mean 	1.9285714285714
scalar Network.dyn_peer[36] 	lookupStabilitySig:mean 	0.73333889472165
scalar Network.dyn_peer[36] 	lookupHopsSig:mean 	18.428571428571
scalar Network.dyn_peer[37] 	lookupTimeSig:mean 	3.4
scalar Network.dyn_peer[37] 	lookupStabilitySig:mean 	-0.33221025764942
scalar Network.dyn_peer[37] 	lookupHopsSig:mean 	33.5
scalar Network.dyn_peer[38] 	lookupTimeSig:mean 	1.16
scalar Network.dyn_peer[38] 	lookupStabilitySig:mean 	0.38771275877953
scalar Network.dyn_peer[38] 	lookupHopsSig:mean 	10.8
scalar Network.dyn_peer[39] 	lookupTimeSig:mean 	1.9833333333333
scalar Network.dyn_peer[39] 	lookupStabilitySig:mean 	0.74841319428136
scalar Network.dyn_peer[39] 	lookupHopsSig:mean 	19
scalar Network.dyn_peer[40] 	lookupTimeSig:mean 	1.55
scalar Network.dyn_peer[40] 	lookupStabilitySig:mean 	0.42447823099792
scalar Network.dyn_peer[40] 	lookupHopsSig:mean 	14.75
scalar Network.dyn_peer[41] 	lookupTimeSig:mean 	1.6125
scalar Network.dyn_peer[41] 	lookupStabilitySig:mean 	0.65689330990426
scalar Network.dyn_peer[41] 	lookupHopsSig:mean 	15.25
scalar Network.dyn_peer[42] 	lookupTimeSig:mean 	1.98
scalar Network.dyn_peer[42] 	lookupStabilitySig:mean 	0.7711566478014
scalar Network.dyn_peer[42] 	lookupHopsSig:mean 	19
scalar Network.dyn_peer[43] 	lookupTimeSig:mean 	2.05
scalar Network.dyn_peer[43] 	lookupStabilitySig:mean 	0.6132352873683
scalar Network.dyn_peer[43] 	lookupHopsSig:mean 	20
scalar Network.dyn_peer[44] 	lookupTimeSig:mean 	1.2909090909091
scalar Network.dyn_peer[44] 	lookupStabilitySig:mean 	0.83884059252556
scalar Network.dyn_peer[44] 	lookupHopsSig:mean 	12
scalar Network.dyn_peer[45] 	lookupTimeSig:mean 	1.3923076923077
scalar Network.dyn_peer[45] 	lookupStabilitySig:mean 	0.87198138691915
scalar Network.dyn_peer[45] 	lookupHopsSig:mean 	13
scalar Network.dyn_peer[46] 	lookupTimeSig:mean 	2.9833333333333
scalar Network.dyn_peer[46] 	lookupStabilitySig:mean 	0.94881726397822
scalar Network.dyn_peer[46] 	lookupHopsSig:mean 	29
scalar Network.dyn_peer[47] 	lookupTimeSig:mean 	1.8444444444444
scalar Network.dyn_peer[47] 	lookupStabilitySig:mean 	0.93687553227776
scalar Network.dyn_peer[47] 	lookupHopsSig:mean 	17.555555555556
scalar Network.dyn_peer[48] 	lookupTimeSig:mean 	1.6857142857143
scalar Network.dyn_peer[48] 	lookupStabilitySig:mean 	0.74971259358738
scalar Network.dyn_peer[48] 	lookupHopsSig:mean 	16
scalar Network.dyn_peer[49] 	lookupTimeSig:mean 	2.5428571428571
scalar Network.dyn_peer[49] 	lookupStabilitySig:mean 	0.95629838534764
scalar Network.dyn_peer[49] 	lookupHopsSig:mean 	24.571428571429
scalar Network.dyn_peer[50] 	lookupTimeSig:mean 	1.44
scalar Network.dyn_peer[50] 	lookupStabilitySig:mean 	0.41452906932682
scalar Network.dyn_peer[50] 	lookupHopsSig:mean 	13.6
scalar Network.dyn_peer[51] 	lookupTimeSig:mean 	1.11
scalar Network.dyn_peer[51] 	lookupStabilitySig:mean 	0.69922182587907
scalar Network.dyn_peer[51] 	lookupHopsSig:mean 	10.2
scalar Network.dyn_peer[52] 	lookupTimeSig:mean 	1.425
scalar Network.dyn_peer[52] 	lookupStabilitySig:mean 	0.35929506272078
scalar Network.dyn_peer[52] 	lookupHopsSig:mean 	13.5
scalar Network.dyn_peer[53] 	lookupTimeSig:mean 	2.1
scalar Network.dyn_peer[53] 	lookupStabilitySig:mean 	0.29393177852035
scalar Network.dyn_peer[53] 	lookupHopsSig:mean 	20.25
scalar Network.dyn_peer[54] 	lookupTimeSig:mean 	1.84
scalar Network.dyn_peer[54] 	lookupStabilitySig:mean 	0.64146003089845
scalar Network.dyn_peer[54] 	lookupHopsSig:mean 	17.6
scalar Network.dyn_peer[55] 	lookupTimeSig:mean 	1.7071428571429
scalar Network.dyn_peer[55] 	lookupStabilitySig:mean 	0.91175935044885
scalar Network.dyn_peer[55] 	lookupHopsSig:mean 	16.142857142857
scalar Network.dyn_peer[56] 	lookupTimeSig:mean 	2.15
scalar Network.dyn_peer[56] 	lookupStabilitySig:mean 	0.89872813411057
scalar Network.dyn_peer[56] 	lookupHopsSig:mean 	20.666666666667
scalar Network.dyn_peer[57] 	lookupTimeSig:mean 	1.4
scalar Network.dyn_peer[57] 	lookupStabilitySig:mean 	0.41844901069999
scalar Network.dyn_peer[57] 	lookupHopsSig:mean 	13.2
scalar Network.dyn_peer[58] 	lookupTimeSig:mean 	1.4
scalar Network.dyn_peer[58] 	lookupStabilitySig:mean 	0.66559640007714
scalar Network.dyn_peer[58] 	lookupHopsSig:mean 	13.166666666667
scalar Network.dyn_peer[59] 	lookupTimeSig:mean 	1.8142857142857
scalar Network.dyn_peer[59] 	lookupStabilitySig:mean 	0.88978856243193
scalar Network.dyn_peer[59] 	lookupHopsSig:mean 	17.285714285714
scalar Network.dyn_peer[60] 	lookupTimeSig:mean 	1.9444444444444
scalar Network.dyn_peer[60] 	lookupStabilitySig:mean 	0.91640610139196
scalar Network.dyn_peer[60] 	lookupHopsSig:mean 	18.555555555556
scalar Network.dyn_peer[61] 	lookupTimeSig:mean 	1.54
scalar Network.dyn_peer[61] 	lookupStabilitySig:mean 	0.57733292579651
scalar Network.dyn_peer[61] 	lookupHopsSig:mean 	14.6
scalar Network.dyn_peer[62] 	lookupTimeSig:mean 	1.93
scalar Network.dyn_peer[62] 	lookupStabilitySig:mean 	0.74342244481668
scalar Network.dyn_peer[62] 	lookupHopsSig:mean 	18.4
scalar Network.dyn_peer[63] 	lookupTimeSig:mean 	1.35
scalar Network.dyn_peer[63] 	lookupStabilitySig:mean 	0.66801269736607
scalar Network.dyn_peer[63] 	lookupHopsSig:mean 	12.625
scalar Network.dyn_peer[64] 	lookupTimeSig:mean 	1.7
scalar Network.dyn_peer[64] 	lookupStabilitySig:mean 	0.55097328312695
scalar Network.dyn_peer[64] 	lookupHopsSig:mean 	16.25
scalar Network.dyn_peer[65] 	lookupTimeSig:mean 	1.3818181818182
scalar Network.dyn_peer[65] 	lookupStabilitySig:mean 	0.92330123750832
scalar Network.dyn_peer[65] 	lookupHopsSig:mean 	12.909090909091
scalar Network.dyn_peer[66] 	lookupTimeSig:mean 	1.3
scalar Network.dyn_peer[66] 	lookupStabilitySig:mean 	0.64726487842078
scalar Network.dyn_peer[66] 	lookupHopsSig:mean 	12.166666666667
scalar Network.dyn_peer[67] 	lookupTimeSig:mean 	1.9333333333333
scalar Network.dyn_peer[67] 	lookupStabilitySig:mean 	0.55159843092163
scalar Network.dyn_peer[67] 	lookupHopsSig:mean 	18.5
scalar Network.dyn_peer[68] 	lookupTimeSig:mean 	1.02
scalar Network.dyn_peer[68] 	lookupStabilitySig:mean 	0.437034958601
scalar Network.dyn_peer[68] 	lookupHopsSig:mean 	9.4
scalar Network.dyn_peer[69] 	lookupTimeSig:mean 	2.25
scalar Network.dyn_peer[69] 	lookupStabilitySig:mean 	0.60064436246951
scalar Network.dyn_peer[69] 	lookupHopsSig:mean 	21.666666666667
scalar Network.dyn_peer[70] 	lookupTimeSig:mean 	1.4769230769231
scalar Network.dyn_peer[70] 	lookupStabilitySig:mean 	0.9528488825935
scalar Network.dyn_peer[70] 	lookupHopsSig:mean 	13.846153846154
scalar Network.dyn_peer[71] 	lookupTimeSig:mean 	1.425
scalar Network.dyn_peer[71] 	lookupStabilitySig:mean 	0.19111472554505
scalar Network.dyn_peer[71] 	lookupHopsSig:mean 	13.5
scalar Network.dyn_peer[72] 	lookupTimeSig:mean 	1.8333333333333
scalar Network.dyn_peer[72] 	lookupStabilitySig:mean 	0.84446564130485
scalar Network.dyn_peer[72] 	lookupHopsSig:mean 	17.5
scalar Network.dyn_peer[73] 	lookupTimeSig:mean 	1.45
scalar Network.dyn_peer[73] 	lookupStabilitySig:mean 	0.92214444482233
scalar Network.dyn_peer[73] 	lookupHopsSig:mean 	13.6
scalar Network.dyn_peer[74] 	lookupTimeSig:mean 	1.88
scalar Network.dyn_peer[74] 	lookupStabilitySig:mean 	0.95019989490975
scalar Network.dyn_peer[74] 	lookupHopsSig:mean 	17.9
scalar Network.dyn_peer[75] 	lookupTimeSig:mean 	1.76
scalar Network.dyn_peer[75] 	lookupStabilitySig:mean 	0.86041998900473
scalar Network.dyn_peer[75] 	lookupHopsSig:mean 	16.8
scalar Network.dyn_peer[76] 	lookupTimeSig:mean 	1.46
scalar Network.dyn_peer[76] 	lookupStabilitySig:mean 	0.48805534951389
scalar Network.dyn_peer[76] 	lookupHopsSig:mean 	13.8
scalar Network.dyn_peer[77] 	lookupTimeSig:mean 	0.875
scalar Network.dyn_peer[77] 	lookupStabilitySig:mean 	0.252980068326
scalar Network.dyn_peer[77] 	lookupHopsSig:mean 	8
scalar Network.dyn_peer[78] 	lookupTimeSig:mean 	2.6285714285714
scalar Network.dyn_peer[78] 	lookupStabilitySig:mean 	0.88089708790981
scalar Network.dyn_peer[78] 	lookupHopsSig:mean 	25.428571428571
scalar Network.dyn_peer[79] 	lookupTimeSig:mean 	3.7333333333333
scalar Network.dyn_peer[79] 	lookupStabilitySig:mean 	0.46186721200744
scalar Network.dyn_peer[79] 	lookupHopsSig:mean 	36.666666666667
scalar Network.dyn_peer[80] 	lookupTimeSig:mean 	1.18
scalar Network.dyn_peer[80] 	lookupStabilitySig:mean 	0.36860421448946
scalar Network.dyn_peer[80] 	lookupHopsSig:mean 	11
scalar Network.dyn_peer[81] 	lookupTimeSig:mean 	1.625
scalar Network.dyn_peer[81] 	lookupStabilitySig:mean 	0.89851911750156
scalar Network.dyn_peer[81] 	lookupHopsSig:mean 	15.375
scalar Network.dyn_peer[82] 	lookupTimeSig:mean 	1.7555555555556
scalar Network.dyn_peer[82] 	lookupStabilitySig:mean 	0.7997660245229
scalar Network.dyn_peer[82] 	lookupHopsSig:mean 	16.666666666667
scalar Network.dyn_peer[83] 	lookupTimeSig:mean 	2.25
scalar Network.dyn_peer[83] 	lookupStabilitySig:mean 	0.41547890752554
scalar Network.dyn_peer[83] 	lookupHopsSig:mean 	21.75
scalar Network.dyn_peer[84] 	lookupTimeSig:mean 	2.075
scalar Network.dyn_peer[84] 	lookupStabilitySig:mean 	0.61958610080183
scalar Network.dyn_peer[84] 	lookupHopsSig:mean 	20
scalar Network.dyn_peer[85] 	lookupTimeSig:mean 	1.6
scalar Network.dyn_peer[85] 	lookupStabilitySig:mean 	0.80372006104638
scalar Network.dyn_peer[85] 	lookupHopsSig:mean 	15.166666666667
scalar Network.dyn_peer[86] 	lookupTimeSig:mean 	1.6909090909091
scalar Network.dyn_peer[86] 	lookupStabilitySig:mean 	0.79070728052069
scalar Network.dyn_peer[86] 	lookupHopsSig:mean 	16
scalar Network.dyn_peer[87] 	lookupTimeSig:mean 	2.06
scalar Network.dyn_peer[87] 	lookupStabilitySig:mean 	0.64903791286051
scalar Network.dyn_peer[87] 	lookupHopsSig:mean 	19.8
scalar Network.dyn_peer[88] 	lookupTimeSig:mean 	2.025
scalar Network.dyn_peer[88] 	lookupStabilitySig:mean 	0.77800287865102
scalar Network.dyn_peer[88] 	lookupHopsSig:mean 	19.5
scalar Network.dyn_peer[89] 	lookupTimeSig:mean 	2.15
scalar Network.dyn_peer[89] 	lookupStabilitySig:mean 	0.025641039013863
scalar Network.dyn_peer[89] 	lookupHopsSig:mean 	21
scalar Network.dyn_peer[90] 	lookupTimeSig:mean 	3.375
scalar Network.dyn_peer[90] 	lookupStabilitySig:mean 	0.90558886155486
scalar Network.dyn_peer[90] 	lookupHopsSig:mean 	33
scalar Network.dyn_peer[91] 	lookupTimeSig:mean 	3.975
scalar Network.dyn_peer[91] 	lookupStabilitySig:mean 	0.81819228082895
scalar Network.dyn_peer[91] 	lookupHopsSig:mean 	39
scalar Network.dyn_peer[92] 	lookupTimeSig:mean 	1.55
scalar Network.dyn_peer[92] 	lookupStabilitySig:mean 	0.53018845741947
scalar Network.dyn_peer[92] 	lookupHopsSig:mean 	14.666666666667
scalar Network.dyn_peer[93] 	lookupTimeSig:mean 	2.86
scalar Network.dyn_peer[93] 	lookupStabilitySig:mean 	0.88450962081552
scalar Network.dyn_peer[93] 	lookupHopsSig:mean 	27.8
scalar Network.dyn_peer[94] 	lookupTimeSig:mean 	1.9272727272727
scalar Network.dyn_peer[94] 	lookupStabilitySig:mean 	0.97075197507035
scalar Network.dyn_peer[94] 	lookupHopsSig:mean 	18.363636363636
scalar Network.dyn_peer[95] 	lookupTimeSig:mean 	1.6888888888889
scalar Network.dyn_peer[95] 	lookupStabilitySig:mean 	0.64732254627678
scalar Network.dyn_peer[95] 	lookupHopsSig:mean 	16
scalar Network.dyn_peer[96] 	lookupTimeSig:mean 	1.7
scalar Network.dyn_peer[96] 	lookupStabilitySig:mean 	0.54293021094054
scalar Network.dyn_peer[96] 	lookupHopsSig:mean 	16.25
scalar Network.dyn_peer[97] 	lookupTimeSig:mean 	2.1166666666667
scalar Network.dyn_peer[97] 	lookupStabilitySig:mean 	0.62259990163147
scalar Network.dyn_peer[97] 	lookupHopsSig:mean 	20.333333333333
scalar Network.dyn_peer[98] 	lookupTimeSig:mean 	1.7166666666667
scalar Network.dyn_peer[98] 	lookupStabilitySig:mean 	0.63581313177322
scalar Network.dyn_peer[98] 	lookupHopsSig:mean 	16.333333333333
scalar Network.dyn_peer[99] 	lookupTimeSig:mean 	2.5
scalar Network.dyn_peer[99] 	lookupStabilitySig:mean 	-0.10113270580769
scalar Network.dyn_peer[99] 	lookupHopsSig:mean 	24.5
scalar Network.dyn_peer[100] 	lookupTimeSig:mean 	2.175
scalar Network.dyn_peer[100] 	lookupStabilitySig:mean 	0.77160783926956
scalar Network.dyn_peer[100] 	lookupHopsSig:mean 	21
scalar Network.dyn_peer[101] 	lookupTimeSig:mean 	6.45
scalar Network.dyn_peer[101] 	lookupStabilitySig:mean 	0.74846825376153
scalar Network.dyn_peer[101] 	lookupHopsSig:mean 	64
scalar Network.dyn_peer[102] 	lookupTimeSig:mean 	1.18
scalar Network.dyn_peer[102] 	lookupStabilitySig:mean 	0.45073401033878
scalar Network.dyn_peer[102] 	lookupHopsSig:mean 	11
scalar Network.dyn_peer[103] 	lookupTimeSig:mean 	2.725
scalar Network.dyn_peer[103] 	lookupStabilitySig:mean 	0.27396123483777
scalar Network.dyn_peer[103] 	lookupHopsSig:mean 	26.5
scalar Network.dyn_peer[104] 	lookupTimeSig:mean 	5.55
scalar Network.dyn_peer[104] 	lookupStabilitySig:mean 	0.79478764533997
scalar Network.dyn_peer[104] 	lookupHopsSig:mean 	55
scalar Network.dyn_peer[105] 	lookupTimeSig:mean 	1.6307692307692
scalar Network.dyn_peer[105] 	lookupStabilitySig:mean 	0.94394695586883
scalar Network.dyn_peer[105] 	lookupHopsSig:mean 	15.384615384615
scalar Network.dyn_peer[106] 	lookupTimeSig:mean 	0.75
scalar Network.dyn_peer[106] 	lookupStabilitySig:mean 	0.26127448864281
scalar Network.dyn_peer[106] 	lookupHopsSig:mean 	6.75
scalar Network.dyn_peer[107] 	lookupTimeSig:mean 	1.5444444444444
scalar Network.dyn_peer[107] 	lookupStabilitySig:mean 	0.73115898425587
scalar Network.dyn_peer[107] 	lookupHopsSig:mean 	14.555555555556
scalar Network.dyn_peer[108] 	lookupTimeSig:mean 	3.125
scalar Network.dyn_peer[108] 	lookupStabilitySig:mean 	0.92401293246076
scalar Network.dyn_peer[108] 	lookupHopsSig:mean 	30.5
scalar Network.dyn_peer[109] 	lookupTimeSig:mean 	1.475
scalar Network.dyn_peer[109] 	lookupStabilitySig:mean 	0.26681902026758
scalar Network.dyn_peer[109] 	lookupHopsSig:mean 	14
scalar Network.dyn_peer[110] 	lookupTimeSig:mean 	1.95
scalar Network.dyn_peer[110] 	lookupStabilitySig:mean 	0.52358935276667
scalar Network.dyn_peer[110] 	lookupHopsSig:mean 	18.666666666667
scalar Network.dyn_peer[111] 	lookupTimeSig:mean 	2.05
scalar Network.dyn_peer[111] 	lookupStabilitySig:mean 	0.48840098828077
scalar Network.dyn_peer[111] 	lookupHopsSig:mean 	20
scalar Network.dyn_peer[112] 	lookupTimeSig:mean 	3.95
scalar Network.dyn_peer[112] 	lookupStabilitySig:mean 	0.37542662024498
scalar Network.dyn_peer[112] 	lookupHopsSig:mean 	39
scalar Network.dyn_peer[113] 	lookupTimeSig:mean 	1.74
scalar Network.dyn_peer[113] 	lookupStabilitySig:mean 	0.82559035290033
scalar Network.dyn_peer[113] 	lookupHopsSig:mean 	16.6
scalar Network.dyn_peer[114] 	lookupTimeSig:mean 	7.1
scalar Network.dyn_peer[114] 	lookupStabilitySig:mean 	0.52193071693182
scalar Network.dyn_peer[114] 	lookupHopsSig:mean 	70.5
scalar Network.dyn_peer[115] 	lookupTimeSig:mean 	2.02
scalar Network.dyn_peer[115] 	lookupStabilitySig:mean 	0.41775209289044
scalar Network.dyn_peer[115] 	lookupHopsSig:mean 	19.4
scalar Network.dyn_peer[116] 	lookupTimeSig:mean 	1.4
scalar Network.dyn_peer[116] 	lookupStabilitySig:mean 	0.82026372370975
scalar Network.dyn_peer[116] 	lookupHopsSig:mean 	13.142857142857
scalar Network.dyn_peer[117] 	lookupTimeSig:mean 	2.125
scalar Network.dyn_peer[117] 	lookupStabilitySig:mean 	0.94714825181291
scalar Network.dyn_peer[117] 	lookupHopsSig:mean 	20.375
scalar Network.dyn_peer[118] 	lookupTimeSig:mean 	1.94
scalar Network.dyn_peer[118] 	lookupStabilitySig:mean 	0.70214452147484
scalar Network.dyn_peer[118] 	lookupHopsSig:mean 	18.6
scalar Network.dyn_peer[119] 	lookupTimeSig:mean 	1.1375
scalar Network.dyn_peer[119] 	lookupStabilitySig:mean 	0.89788755445625
scalar Network.dyn_peer[119] 	lookupHopsSig:mean 	10.5
scalar Network.dyn_peer[120] 	lookupTimeSig:mean 	1.375
scalar Network.dyn_peer[120] 	lookupStabilitySig:mean 	0.6001441879198
scalar Network.dyn_peer[120] 	lookupHopsSig:mean 	13
scalar Network.dyn_peer[121] 	lookupTimeSig:mean 	1.7
scalar Network.dyn_peer[121] 	lookupStabilitySig:mean 	0.46304346621037
scalar Network.dyn_peer[121] 	lookupHopsSig:mean 	16.5
scalar Network.dyn_peer[122] 	lookupTimeSig:mean 	1.6428571428571
scalar Network.dyn_peer[122] 	lookupStabilitySig:mean 	0.90147652397198
scalar Network.dyn_peer[122] 	lookupHopsSig:mean 	15.571428571429
scalar Network.dyn_peer[123] 	lookupTimeSig:mean 	1.84
scalar Network.dyn_peer[123] 	lookupStabilitySig:mean 	0.64378044381738
scalar Network.dyn_peer[123] 	lookupHopsSig:mean 	17.6
scalar Network.dyn_peer[124] 	lookupTimeSig:mean 	1.35
scalar Network.dyn_peer[124] 	lookupStabilitySig:mean 	0.55178572190925
scalar Network.dyn_peer[124] 	lookupHopsSig:mean 	12.75
scalar Network.dyn_peer[125] 	lookupTimeSig:mean 	1.6
scalar Network.dyn_peer[125] 	lookupStabilitySig:mean 	0.81258733640425
scalar Network.dyn_peer[125] 	lookupHopsSig:mean 	15.125
scalar Network.dyn_peer[126] 	lookupTimeSig:mean 	2.1777777777778
scalar Network.dyn_peer[126] 	lookupStabilitySig:mean 	0.85248346885459
scalar Network.dyn_peer[126] 	lookupHopsSig:mean 	20.888888888889
scalar Network.dyn_peer[127] 	lookupTimeSig:mean 	2.2
scalar Network.dyn_peer[127] 	lookupStabilitySig:mean 	0.030461400747299
scalar Network.dyn_peer[127] 	lookupHopsSig:mean 	21.333333333333
scalar Network.dyn_peer[128] 	lookupTimeSig:mean 	1.525
scalar Network.dyn_peer[128] 	lookupStabilitySig:mean 	0.78656246792525
scalar Network.dyn_peer[128] 	lookupHopsSig:mean 	14.5
scalar Network.dyn_peer[129] 	lookupTimeSig:mean 	1.3555555555556
scalar Network.dyn_peer[129] 	lookupStabilitySig:mean 	0.89516858373665
scalar Network.dyn_peer[129] 	lookupHopsSig:mean 	12.666666666667
scalar Network.dyn_peer[130] 	lookupTimeSig:mean 	1.7
scalar Network.dyn_peer[130] 	lookupStabilitySig:mean 	0.88656169412813
scalar Network.dyn_peer[130] 	lookupHopsSig:mean 	16.083333333333
scalar Network.dyn_peer[131] 	lookupTimeSig:mean 	2.6
scalar Network.dyn_peer[131] 	lookupStabilitySig:mean 	0.72106483827035
scalar Network.dyn_peer[131] 	lookupHopsSig:mean 	25.333333333333
scalar Network.dyn_peer[132] 	lookupTimeSig:mean 	0.7
scalar Network.dyn_peer[132] 	lookupStabilitySig:mean 	0.34580417349935
scalar Network.dyn_peer[132] 	lookupHopsSig:mean 	6.25
scalar Network.dyn_peer[133] 	lookupTimeSig:mean 	1.47
scalar Network.dyn_peer[133] 	lookupStabilitySig:mean 	0.89727681707591
scalar Network.dyn_peer[133] 	lookupHopsSig:mean 	13.8
scalar Network.dyn_peer[134] 	lookupTimeSig:mean 	1.8444444444444
scalar Network.dyn_peer[134] 	lookupStabilitySig:mean 	0.93660232993878
scalar Network.dyn_peer[134] 	lookupHopsSig:mean 	17.555555555556
scalar Network.dyn_peer[135] 	lookupTimeSig:mean 	2.0307692307692
scalar Network.dyn_peer[135] 	lookupStabilitySig:mean 	0.95427803652218
scalar Network.dyn_peer[135] 	lookupHopsSig:mean 	19.384615384615
scalar Network.dyn_peer[136] 	lookupTimeSig:mean 	3.275
scalar Network.dyn_peer[136] 	lookupStabilitySig:mean 	0.40561279654503
scalar Network.dyn_peer[136] 	lookupHopsSig:mean 	32
scalar Network.dyn_peer[137] 	lookupTimeSig:mean 	1.7
scalar Network.dyn_peer[137] 	lookupStabilitySig:mean 	0.8338486738503
scalar Network.dyn_peer[137] 	lookupHopsSig:mean 	16.25
scalar Network.dyn_peer[138] 	lookupTimeSig:mean 	2.0166666666667
scalar Network.dyn_peer[138] 	lookupStabilitySig:mean 	0.6604938111268
scalar Network.dyn_peer[138] 	lookupHopsSig:mean 	19.333333333333
scalar Network.dyn_peer[139] 	lookupTimeSig:mean 	2.3
scalar Network.dyn_peer[139] 	lookupStabilitySig:mean 	0.80500275967643
scalar Network.dyn_peer[139] 	lookupHopsSig:mean 	22.25
scalar Network.dyn_peer[140] 	lookupTimeSig:mean 	1.2
scalar Network.dyn_peer[140] 	lookupStabilitySig:mean 	0.8238141075708
scalar Network.dyn_peer[140] 	lookupHopsSig:mean 	11.125
scalar Network.dyn_peer[141] 	lookupTimeSig:mean 	0.83333333333333
scalar Network.dyn_peer[141] 	lookupStabilitySig:mean 	0.89694499426211
scalar Network.dyn_peer[141] 	lookupHopsSig:mean 	7.4444444444444
scalar Network.dyn_peer[142] 	lookupTimeSig:mean 	1.98
scalar Network.dyn_peer[142] 	lookupStabilitySig:mean 	0.52365992292762
scalar Network.dyn_peer[142] 	lookupHopsSig:mean 	19
scalar Network.dyn_peer[143] 	lookupTimeSig:mean 	1.6142857142857
scalar Network.dyn_peer[143] 	lookupStabilitySig:mean 	0.81572657437729
scalar Network.dyn_peer[143] 	lookupHopsSig:mean 	15.285714285714
scalar Network.dyn_peer[144] 	lookupTimeSig:mean 	1.7714285714286
scalar Network.dyn_peer[144] 	lookupStabilitySig:mean 	0.67974126844534
scalar Network.dyn_peer[144] 	lookupHopsSig:mean 	16.857142857143
scalar Network.dyn_peer[145] 	lookupTimeSig:mean 	2.1
scalar Network.dyn_peer[145] 	lookupStabilitySig:mean 	0.82384707033634
scalar Network.dyn_peer[145] 	lookupHopsSig:mean 	20.2
scalar Network.dyn_peer[146] 	lookupTimeSig:mean 	1.6
scalar Network.dyn_peer[146] 	lookupStabilitySig:mean 	0.46475652605295
scalar Network.dyn_peer[146] 	lookupHopsSig:mean 	15.166666666667
scalar Network.dyn_peer[147] 	lookupTimeSig:mean 	1.95
scalar Network.dyn_peer[147] 	lookupStabilitySig:mean 	0.91816432373598
scalar Network.dyn_peer[147] 	lookupHopsSig:mean 	18.6
scalar Network.dyn_peer[148] 	lookupTimeSig:mean 	2.6333333333333
scalar Network.dyn_peer[148] 	lookupStabilitySig:mean 	0.47345029314359
scalar Network.dyn_peer[148] 	lookupHopsSig:mean 	25.666666666667
scalar Network.dyn_peer[149] 	lookupTimeSig:mean 	2.1375
scalar Network.dyn_peer[149] 	lookupStabilitySig:mean 	0.92281864152756
scalar Network.dyn_peer[149] 	lookupHopsSig:mean 	20.5
scalar Network.dyn_peer[150] 	lookupTimeSig:mean 	1.3666666666667
scalar Network.dyn_peer[150] 	lookupStabilitySig:mean 	0.83443027093179
scalar Network.dyn_peer[150] 	lookupHopsSig:mean 	12.777777777778
scalar Network.dyn_peer[151] 	lookupTimeSig:mean 	1.06
scalar Network.dyn_peer[151] 	lookupStabilitySig:mean 	0.70674455817789
scalar Network.dyn_peer[151] 	lookupHopsSig:mean 	9.8
scalar Network.dyn_peer[152] 	lookupTimeSig:mean 	1.72
scalar Network.dyn_peer[152] 	lookupStabilitySig:mean 	0.44821159467101
scalar Network.dyn_peer[152] 	lookupHopsSig:mean 	16.4
scalar Network.dyn_peer[153] 	lookupTimeSig:mean 	2.9
scalar Network.dyn_peer[153] 	lookupStabilitySig:mean 	0.92281946279109
scalar Network.dyn_peer[153] 	lookupHopsSig:mean 	28.2
scalar Network.dyn_peer[154] 	lookupTimeSig:mean 	1.25
scalar Network.dyn_peer[154] 	lookupStabilitySig:mean 	0.74244452310571
scalar Network.dyn_peer[154] 	lookupHopsSig:mean 	11.666666666667
scalar Network.dyn_peer[155] 	lookupTimeSig:mean 	1.8166666666667
scalar Network.dyn_peer[155] 	lookupStabilitySig:mean 	0.88956151219706
scalar Network.dyn_peer[155] 	lookupHopsSig:mean 	17.333333333333
scalar Network.dyn_peer[156] 	lookupTimeSig:mean 	1.55
scalar Network.dyn_peer[156] 	lookupStabilitySig:mean 	0.25248417071998
scalar Network.dyn_peer[156] 	lookupHopsSig:mean 	14.75
scalar Network.dyn_peer[157] 	lookupTimeSig:mean 	1.6230769230769
scalar Network.dyn_peer[157] 	lookupStabilitySig:mean 	0.91911305146865
scalar Network.dyn_peer[157] 	lookupHopsSig:mean 	15.307692307692
scalar Network.dyn_peer[158] 	lookupTimeSig:mean 	1.5571428571429
scalar Network.dyn_peer[158] 	lookupStabilitySig:mean 	0.87052749536399
scalar Network.dyn_peer[158] 	lookupHopsSig:mean 	14.714285714286
scalar Network.dyn_peer[159] 	lookupTimeSig:mean 	1.725
scalar Network.dyn_peer[159] 	lookupStabilitySig:mean 	0.67647826485336
scalar Network.dyn_peer[159] 	lookupHopsSig:mean 	16.5
scalar Network.dyn_peer[160] 	lookupTimeSig:mean 	1.4461538461538
scalar Network.dyn_peer[160] 	lookupStabilitySig:mean 	0.77193271635602
scalar Network.dyn_peer[160] 	lookupHopsSig:mean 	13.538461538462
scalar Network.dyn_peer[161] 	lookupTimeSig:mean 	2.08
scalar Network.dyn_peer[161] 	lookupStabilitySig:mean 	0.83483999036252
scalar Network.dyn_peer[161] 	lookupHopsSig:mean 	20
scalar Network.dyn_peer[162] 	lookupTimeSig:mean 	1.7
scalar Network.dyn_peer[162] 	lookupStabilitySig:mean 	0.84511528583243
scalar Network.dyn_peer[162] 	lookupHopsSig:mean 	16.125
scalar Network.dyn_peer[163] 	lookupTimeSig:mean 	1
scalar Network.dyn_peer[163] 	lookupStabilitySig:mean 	0.8499586845166
scalar Network.dyn_peer[163] 	lookupHopsSig:mean 	9.1
scalar Network.dyn_peer[164] 	lookupTimeSig:mean 	1.3222222222222
scalar Network.dyn_peer[164] 	lookupStabilitySig:mean 	0.9518013874638
scalar Network.dyn_peer[164] 	lookupHopsSig:mean 	12.333333333333
scalar Network.dyn_peer[165] 	lookupTimeSig:mean 	1.95
scalar Network.dyn_peer[165] 	lookupStabilitySig:mean 	0.61763607338071
scalar Network.dyn_peer[165] 	lookupHopsSig:mean 	18.666666666667
scalar Network.dyn_peer[166] 	lookupTimeSig:mean 	2.8857142857143
scalar Network.dyn_peer[166] 	lookupStabilitySig:mean 	0.95643116733325
scalar Network.dyn_peer[166] 	lookupHopsSig:mean 	28
scalar Network.dyn_peer[167] 	lookupTimeSig:mean 	2.15
scalar Network.dyn_peer[167] 	lookupStabilitySig:mean 	0.90959943054865
scalar Network.dyn_peer[167] 	lookupHopsSig:mean 	20.666666666667
scalar Network.dyn_peer[168] 	lookupTimeSig:mean 	1.82
scalar Network.dyn_peer[168] 	lookupStabilitySig:mean 	0.64982785135508
scalar Network.dyn_peer[168] 	lookupHopsSig:mean 	17.4
scalar Network.dyn_peer[169] 	lookupTimeSig:mean 	3.12
scalar Network.dyn_peer[169] 	lookupStabilitySig:mean 	0.59393784999847
scalar Network.dyn_peer[169] 	lookupHopsSig:mean 	30.4
scalar Network.dyn_peer[170] 	lookupTimeSig:mean 	2.2
scalar Network.dyn_peer[170] 	lookupStabilitySig:mean 	0.96242757073858
scalar Network.dyn_peer[170] 	lookupHopsSig:mean 	21.090909090909
scalar Network.dyn_peer[171] 	lookupTimeSig:mean 	1.7555555555556
scalar Network.dyn_peer[171] 	lookupStabilitySig:mean 	0.94645731901336
scalar Network.dyn_peer[171] 	lookupHopsSig:mean 	16.666666666667
scalar Network.dyn_peer[172] 	lookupTimeSig:mean 	2.825
scalar Network.dyn_peer[172] 	lookupStabilitySig:mean 	0.26814656890929
scalar Network.dyn_peer[172] 	lookupHopsSig:mean 	27.5
scalar Network.dyn_peer[173] 	lookupTimeSig:mean 	2.0333333333333
scalar Network.dyn_peer[173] 	lookupStabilitySig:mean 	0.63032781208555
scalar Network.dyn_peer[173] 	lookupHopsSig:mean 	19.5
scalar Network.dyn_peer[174] 	lookupTimeSig:mean 	1.425
scalar Network.dyn_peer[174] 	lookupStabilitySig:mean 	0.2846749201417
scalar Network.dyn_peer[174] 	lookupHopsSig:mean 	13.5
scalar Network.dyn_peer[175] 	lookupTimeSig:mean 	2.2
scalar Network.dyn_peer[175] 	lookupStabilitySig:mean 	0.93576024141577
scalar Network.dyn_peer[175] 	lookupHopsSig:mean 	21.111111111111
scalar Network.dyn_peer[176] 	lookupTimeSig:mean 	2.1666666666667
scalar Network.dyn_peer[176] 	lookupStabilitySig:mean 	0.63299318651358
scalar Network.dyn_peer[176] 	lookupHopsSig:mean 	21
scalar Network.dyn_peer[177] 	lookupTimeSig:mean 	3.75
scalar Network.dyn_peer[177] 	lookupStabilitySig:mean 	0.82110586483032
scalar Network.dyn_peer[177] 	lookupHopsSig:mean 	36.75
scalar Network.dyn_peer[178] 	lookupTimeSig:mean 	2.3
scalar Network.dyn_peer[178] 	lookupStabilitySig:mean 	0.96399814385751
scalar Network.dyn_peer[178] 	lookupHopsSig:mean 	22.090909090909
scalar Network.dyn_peer[179] 	lookupTimeSig:mean 	1.65
scalar Network.dyn_peer[179] 	lookupStabilitySig:mean 	0.71091019827873
scalar Network.dyn_peer[179] 	lookupHopsSig:mean 	15.666666666667
scalar Network.dyn_peer[180] 	lookupTimeSig:mean 	2.8333333333333
scalar Network.dyn_peer[180] 	lookupStabilitySig:mean 	0.27705312768618
scalar Network.dyn_peer[180] 	lookupHopsSig:mean 	27.666666666667
scalar Network.dyn_peer[181] 	lookupTimeSig:mean 	1.5555555555556
scalar Network.dyn_peer[181] 	lookupStabilitySig:mean 	0.80357920709583
scalar Network.dyn_peer[181] 	lookupHopsSig:mean 	14.666666666667
scalar Network.dyn_peer[182] 	lookupTimeSig:mean 	1.5428571428571
scalar Network.dyn_peer[182] 	lookupStabilitySig:mean 	0.64079629177494
scalar Network.dyn_peer[182] 	lookupHopsSig:mean 	14.571428571429
scalar Network.dyn_peer[183] 	lookupTimeSig:mean 	1.9285714285714
scalar Network.dyn_peer[183] 	lookupStabilitySig:mean 	0.73963644408754
scalar Network.dyn_peer[183] 	lookupHopsSig:mean 	18.428571428571
scalar Network.dyn_peer[184] 	lookupTimeSig:mean 	1.8384615384615
scalar Network.dyn_peer[184] 	lookupStabilitySig:mean 	0.97044526260848
scalar Network.dyn_peer[184] 	lookupHopsSig:mean 	17.461538461538
scalar Network.dyn_peer[185] 	lookupTimeSig:mean 	1.42
scalar Network.dyn_peer[185] 	lookupStabilitySig:mean 	0.44339796900749
scalar Network.dyn_peer[185] 	lookupHopsSig:mean 	13.4
scalar Network.dyn_peer[186] 	lookupTimeSig:mean 	1.5909090909091
scalar Network.dyn_peer[186] 	lookupStabilitySig:mean 	0.83015435790135
scalar Network.dyn_peer[186] 	lookupHopsSig:mean 	15
scalar Network.dyn_peer[187] 	lookupTimeSig:mean 	2.64
scalar Network.dyn_peer[187] 	lookupStabilitySig:mean 	0.83775039948523
scalar Network.dyn_peer[187] 	lookupHopsSig:mean 	25.6
scalar Network.dyn_peer[188] 	lookupTimeSig:mean 	1.7
scalar Network.dyn_peer[188] 	lookupStabilitySig:mean 	0.62745328899473
scalar Network.dyn_peer[188] 	lookupHopsSig:mean 	16.142857142857
scalar Network.dyn_peer[189] 	lookupTimeSig:mean 	1.3166666666667
scalar Network.dyn_peer[189] 	lookupStabilitySig:mean 	0.79947314520056
scalar Network.dyn_peer[189] 	lookupHopsSig:mean 	12.333333333333
scalar Network.dyn_peer[190] 	lookupTimeSig:mean 	2.2125
scalar Network.dyn_peer[190] 	lookupStabilitySig:mean 	0.96714052662719
scalar Network.dyn_peer[190] 	lookupHopsSig:mean 	21.25
scalar Network.dyn_peer[191] 	lookupTimeSig:mean 	1.85
scalar Network.dyn_peer[191] 	lookupStabilitySig:mean 	0.60022564372048
scalar Network.dyn_peer[191] 	lookupHopsSig:mean 	17.75
scalar Network.dyn_peer[192] 	lookupTimeSig:mean 	1.325
scalar Network.dyn_peer[192] 	lookupStabilitySig:mean 	0.67440809798427
scalar Network.dyn_peer[192] 	lookupHopsSig:mean 	12.375
scalar Network.dyn_peer[193] 	lookupTimeSig:mean 	2.1
scalar Network.dyn_peer[193] 	lookupStabilitySig:mean 	0.86642578137772
scalar Network.dyn_peer[193] 	lookupHopsSig:mean 	20.142857142857
scalar Network.dyn_peer[194] 	lookupTimeSig:mean 	1.3333333333333
scalar Network.dyn_peer[194] 	lookupStabilitySig:mean 	0.78644469939172
scalar Network.dyn_peer[194] 	lookupHopsSig:mean 	12.5
scalar Network.dyn_peer[195] 	lookupTimeSig:mean 	2.56
scalar Network.dyn_peer[195] 	lookupStabilitySig:mean 	0.81090138480067
scalar Network.dyn_peer[195] 	lookupHopsSig:mean 	24.8
scalar Network.dyn_peer[196] 	lookupTimeSig:mean 	1.2285714285714
scalar Network.dyn_peer[196] 	lookupStabilitySig:mean 	0.64552035561896
scalar Network.dyn_peer[196] 	lookupHopsSig:mean 	11.428571428571
scalar Network.dyn_peer[197] 	lookupTimeSig:mean 	3.1
scalar Network.dyn_peer[197] 	lookupStabilitySig:mean 	0.93499674009425
scalar Network.dyn_peer[197] 	lookupHopsSig:mean 	30.142857142857
scalar Network.dyn_peer[198] 	lookupTimeSig:mean 	1.4714285714286
scalar Network.dyn_peer[198] 	lookupStabilitySig:mean 	0.86198638838583
scalar Network.dyn_peer[198] 	lookupHopsSig:mean 	13.857142857143
scalar Network.dyn_peer[199] 	lookupTimeSig:mean 	2.125
scalar Network.dyn_peer[199] 	lookupStabilitySig:mean 	0.90758619422559
scalar Network.dyn_peer[199] 	lookupHopsSig:mean 	20.375
scalar Network.dyn_peer[200] 	lookupTimeSig:mean 	1.3
scalar Network.dyn_peer[200] 	lookupStabilitySig:mean 	0.71679834444076
scalar Network.dyn_peer[200] 	lookupHopsSig:mean 	12.2
scalar Network.dyn_peer[201] 	lookupTimeSig:mean 	1.825
scalar Network.dyn_peer[201] 	lookupStabilitySig:mean 	0.82385187875479
scalar Network.dyn_peer[201] 	lookupHopsSig:mean 	17.5
scalar Network.dyn_peer[202] 	lookupTimeSig:mean 	2.4
scalar Network.dyn_peer[202] 	lookupStabilitySig:mean 	0.94865564846744
scalar Network.dyn_peer[202] 	lookupHopsSig:mean 	23.166666666667
scalar Network.dyn_peer[203] 	lookupTimeSig:mean 	1.0666666666667
scalar Network.dyn_peer[203] 	lookupStabilitySig:mean 	0.51666666567326
scalar Network.dyn_peer[203] 	lookupHopsSig:mean 	10
scalar Network.dyn_peer[204] 	lookupTimeSig:mean 	2.48
scalar Network.dyn_peer[204] 	lookupStabilitySig:mean 	0.71075222864747
scalar Network.dyn_peer[204] 	lookupHopsSig:mean 	24
scalar Network.dyn_peer[205] 	lookupTimeSig:mean 	1.4
scalar Network.dyn_peer[205] 	lookupStabilitySig:mean 	-0.072222232818604
scalar Network.dyn_peer[205] 	lookupHopsSig:mean 	13.5
scalar Network.dyn_peer[206] 	lookupTimeSig:mean 	1.875
scalar Network.dyn_peer[206] 	lookupStabilitySig:mean 	0.79616955085658
scalar Network.dyn_peer[206] 	lookupHopsSig:mean 	18
scalar Network.dyn_peer[207] 	lookupTimeSig:mean 	3.3
scalar Network.dyn_peer[207] 	lookupStabilitySig:mean 	0.83928530244157
scalar Network.dyn_peer[207] 	lookupHopsSig:mean 	32.25
scalar Network.dyn_peer[208] 	lookupTimeSig:mean 	1.7
scalar Network.dyn_peer[208] 	lookupStabilitySig:mean 	0.94171034565873
scalar Network.dyn_peer[208] 	lookupHopsSig:mean 	16.090909090909
scalar Network.dyn_peer[209] 	lookupTimeSig:mean 	1.6166666666667
scalar Network.dyn_peer[209] 	lookupStabilitySig:mean 	0.68418093646566
scalar Network.dyn_peer[209] 	lookupHopsSig:mean 	15.333333333333
scalar Network.dyn_peer[210] 	lookupTimeSig:mean 	1.9888888888889
scalar Network.dyn_peer[210] 	lookupStabilitySig:mean 	0.76947999052289
scalar Network.dyn_peer[210] 	lookupHopsSig:mean 	19
scalar Network.dyn_peer[211] 	lookupTimeSig:mean 	2
scalar Network.dyn_peer[211] 	lookupStabilitySig:mean 	0.63199042528868
scalar Network.dyn_peer[211] 	lookupHopsSig:mean 	19.25
scalar Network.dyn_peer[212] 	lookupTimeSig:mean 	3.2285714285714
scalar Network.dyn_peer[212] 	lookupStabilitySig:mean 	0.94908240969692
scalar Network.dyn_peer[212] 	lookupHopsSig:mean 	31.428571428571
scalar Network.dyn_peer[213] 	lookupTimeSig:mean 	1.6
scalar Network.dyn_peer[213] 	lookupStabilitySig:mean 	0.75558759423438
scalar Network.dyn_peer[213] 	lookupHopsSig:mean 	15.083333333333
scalar Network.dyn_peer[214] 	lookupTimeSig:mean 	2.4625
scalar Network.dyn_peer[214] 	lookupStabilitySig:mean 	0.96206622483442
scalar Network.dyn_peer[214] 	lookupHopsSig:mean 	23.75
scalar Network.dyn_peer[215] 	lookupTimeSig:mean 	3.1
scalar Network.dyn_peer[215] 	lookupStabilitySig:mean 	0.75961091493567
scalar Network.dyn_peer[215] 	lookupHopsSig:mean 	30.333333333333
scalar Network.dyn_peer[216] 	lookupTimeSig:mean 	1.9428571428571
scalar Network.dyn_peer[216] 	lookupStabilitySig:mean 	0.82678316653307
scalar Network.dyn_peer[216] 	lookupHopsSig:mean 	18.571428571429
scalar Network.dyn_peer[217] 	lookupTimeSig:mean 	1.84
scalar Network.dyn_peer[217] 	lookupStabilitySig:mean 	0.38604949861765
scalar Network.dyn_peer[217] 	lookupHopsSig:mean 	17.6
scalar Network.dyn_peer[218] 	lookupTimeSig:mean 	1.16
scalar Network.dyn_peer[218] 	lookupStabilitySig:mean 	0.60474063158035
scalar Network.dyn_peer[218] 	lookupHopsSig:mean 	10.8
scalar Network.dyn_peer[219] 	lookupTimeSig:mean 	3.65
scalar Network.dyn_peer[219] 	lookupStabilitySig:mean 	0.91603688150644
scalar Network.dyn_peer[219] 	lookupHopsSig:mean 	35.75
scalar Network.dyn_peer[220] 	lookupTimeSig:mean 	5.3
scalar Network.dyn_peer[220] 	lookupStabilitySig:mean 	0.20060852915049
scalar Network.dyn_peer[220] 	lookupHopsSig:mean 	52.5
scalar Network.dyn_peer[221] 	lookupTimeSig:mean 	3
scalar Network.dyn_peer[221] 	lookupStabilitySig:mean 	0.85083044832572
scalar Network.dyn_peer[221] 	lookupHopsSig:mean 	29.166666666667
scalar Network.dyn_peer[222] 	lookupTimeSig:mean 	2.2666666666667
scalar Network.dyn_peer[222] 	lookupStabilitySig:mean 	0.71115824083487
scalar Network.dyn_peer[222] 	lookupHopsSig:mean 	22
scalar Network.dyn_peer[223] 	lookupTimeSig:mean 	1.92
scalar Network.dyn_peer[223] 	lookupStabilitySig:mean 	0.60983181670308
scalar Network.dyn_peer[223] 	lookupHopsSig:mean 	18.4
scalar Network.dyn_peer[224] 	lookupTimeSig:mean 	2.2666666666667
scalar Network.dyn_peer[224] 	lookupStabilitySig:mean 	0.3526200701793
scalar Network.dyn_peer[224] 	lookupHopsSig:mean 	22
scalar Network.dyn_peer[225] 	lookupTimeSig:mean 	0.9
scalar Network.dyn_peer[225] 	lookupStabilitySig:mean 	0.44040042757988
scalar Network.dyn_peer[225] 	lookupHopsSig:mean 	8.2
scalar Network.dyn_peer[226] 	lookupTimeSig:mean 	1.76
scalar Network.dyn_peer[226] 	lookupStabilitySig:mean 	0.79017625506967
scalar Network.dyn_peer[226] 	lookupHopsSig:mean 	16.7
scalar Network.dyn_peer[227] 	lookupTimeSig:mean 	1.0923076923077
scalar Network.dyn_peer[227] 	lookupStabilitySig:mean 	0.88163675117091
scalar Network.dyn_peer[227] 	lookupHopsSig:mean 	10
scalar Network.dyn_peer[228] 	lookupTimeSig:mean 	3.2666666666667
scalar Network.dyn_peer[228] 	lookupStabilitySig:mean 	0.83519020552437
scalar Network.dyn_peer[228] 	lookupHopsSig:mean 	32
scalar Network.dyn_peer[229] 	lookupTimeSig:mean 	2.68
scalar Network.dyn_peer[229] 	lookupStabilitySig:mean 	0.83074393905699
scalar Network.dyn_peer[229] 	lookupHopsSig:mean 	26
scalar Network.dyn_peer[230] 	lookupTimeSig:mean 	2
scalar Network.dyn_peer[230] 	lookupStabilitySig:mean 	0.85664283260703
scalar Network.dyn_peer[230] 	lookupHopsSig:mean 	19.2
scalar Network.dyn_peer[231] 	lookupTimeSig:mean 	1.47
scalar Network.dyn_peer[231] 	lookupStabilitySig:mean 	0.81002380228601
scalar Network.dyn_peer[231] 	lookupHopsSig:mean 	13.8
scalar Network.dyn_peer[232] 	lookupTimeSig:mean 	1.8916666666667
scalar Network.dyn_peer[232] 	lookupStabilitySig:mean 	0.95807105182515
scalar Network.dyn_peer[232] 	lookupHopsSig:mean 	18
scalar Network.dyn_peer[233] 	lookupTimeSig:mean 	1.1
scalar Network.dyn_peer[233] 	lookupStabilitySig:mean 	0.70134506188333
scalar Network.dyn_peer[233] 	lookupHopsSig:mean 	10.166666666667
scalar Network.dyn_peer[234] 	lookupTimeSig:mean 	2.2333333333333
scalar Network.dyn_peer[234] 	lookupStabilitySig:mean 	0.86308813250313
scalar Network.dyn_peer[234] 	lookupHopsSig:mean 	21.5
scalar Network.dyn_peer[235] 	lookupTimeSig:mean 	1.0666666666667
scalar Network.dyn_peer[235] 	lookupStabilitySig:mean 	0.55934634183844
scalar Network.dyn_peer[235] 	lookupHopsSig:mean 	10
scalar Network.dyn_peer[236] 	lookupTimeSig:mean 	2.1
scalar Network.dyn_peer[236] 	lookupStabilitySig:mean 	0.8829606081773
scalar Network.dyn_peer[236] 	lookupHopsSig:mean 	20.111111111111
scalar Network.dyn_peer[237] 	lookupTimeSig:mean 	2.2333333333333
scalar Network.dyn_peer[237] 	lookupStabilitySig:mean 	0.96870909895127
scalar Network.dyn_peer[237] 	lookupHopsSig:mean 	21.416666666667
scalar Network.dyn_peer[238] 	lookupTimeSig:mean 	1.4
scalar Network.dyn_peer[238] 	lookupStabilitySig:mean 	0.55007857978344
scalar Network.dyn_peer[238] 	lookupHopsSig:mean 	13.2
scalar Network.dyn_peer[239] 	lookupTimeSig:mean 	2.975
scalar Network.dyn_peer[239] 	lookupStabilitySig:mean 	0.72659185249358
scalar Network.dyn_peer[239] 	lookupHopsSig:mean 	29
scalar Network.dyn_peer[240] 	lookupTimeSig:mean 	1.0166666666667
scalar Network.dyn_peer[240] 	lookupStabilitySig:mean 	0.61783192927639
scalar Network.dyn_peer[240] 	lookupHopsSig:mean 	9.3333333333333
scalar Network.dyn_peer[241] 	lookupTimeSig:mean 	2.625
scalar Network.dyn_peer[241] 	lookupStabilitySig:mean 	0.52452839515172
scalar Network.dyn_peer[241] 	lookupHopsSig:mean 	25.5
scalar Network.dyn_peer[242] 	lookupTimeSig:mean 	1.8714285714286
scalar Network.dyn_peer[242] 	lookupStabilitySig:mean 	0.69378267707569
scalar Network.dyn_peer[242] 	lookupHopsSig:mean 	17.857142857143
scalar Network.dyn_peer[243] 	lookupTimeSig:mean 	2.75
scalar Network.dyn_peer[243] 	lookupStabilitySig:mean 	0.38830346614122
scalar Network.dyn_peer[243] 	lookupHopsSig:mean 	27
scalar Network.dyn_peer[244] 	lookupTimeSig:mean 	1.5333333333333
scalar Network.dyn_peer[244] 	lookupStabilitySig:mean 	0.66802760461966
scalar Network.dyn_peer[244] 	lookupHopsSig:mean 	14.666666666667
scalar Network.dyn_peer[245] 	lookupTimeSig:mean 	1.2285714285714
scalar Network.dyn_peer[245] 	lookupStabilitySig:mean 	0.59453895262309
scalar Network.dyn_peer[245] 	lookupHopsSig:mean 	11.428571428571
scalar Network.dyn_peer[246] 	lookupTimeSig:mean 	2.025
scalar Network.dyn_peer[246] 	lookupStabilitySig:mean 	0.50972921063658
scalar Network.dyn_peer[246] 	lookupHopsSig:mean 	19.5
scalar Network.dyn_peer[247] 	lookupTimeSig:mean 	1.15
scalar Network.dyn_peer[247] 	lookupStabilitySig:mean 	0.55052587017417
scalar Network.dyn_peer[247] 	lookupHopsSig:mean 	10.75
scalar Network.dyn_peer[248] 	lookupTimeSig:mean 	2.55
scalar Network.dyn_peer[248] 	lookupStabilitySig:mean 	0.89421907393262
scalar Network.dyn_peer[248] 	lookupHopsSig:mean 	24.75
scalar Network.dyn_peer[249] 	lookupTimeSig:mean 	2.58
scalar Network.dyn_peer[249] 	lookupStabilitySig:mean 	0.83550233021379
scalar Network.dyn_peer[249] 	lookupHopsSig:mean 	25
scalar Network.dyn_peer[250] 	lookupTimeSig:mean 	1.9666666666667
scalar Network.dyn_peer[250] 	lookupStabilitySig:mean 	0.33712426821391
scalar Network.dyn_peer[250] 	lookupHopsSig:mean 	19
scalar Network.dyn_peer[251] 	lookupTimeSig:mean 	1.7571428571429
scalar Network.dyn_peer[251] 	lookupStabilitySig:mean 	0.83167034494025
scalar Network.dyn_peer[251] 	lookupHopsSig:mean 	16.714285714286
scalar Network.dyn_peer[252] 	lookupTimeSig:mean 	4.1
scalar Network.dyn_peer[252] 	lookupStabilitySig:mean 	0.52748902142048
scalar Network.dyn_peer[252] 	lookupHopsSig:mean 	40.5
scalar Network.dyn_peer[253] 	lookupTimeSig:mean 	2.5666666666667
scalar Network.dyn_peer[253] 	lookupStabilitySig:mean 	0.43468621124824
scalar Network.dyn_peer[253] 	lookupHopsSig:mean 	25
scalar Network.dyn_peer[254] 	lookupTimeSig:mean 	1.625
scalar Network.dyn_peer[254] 	lookupStabilitySig:mean 	0.54965669615194
scalar Network.dyn_peer[254] 	lookupHopsSig:mean 	15.5
scalar Network.dyn_peer[255] 	lookupTimeSig:mean 	1.44
scalar Network.dyn_peer[255] 	lookupStabilitySig:mean 	0.532715472579
scalar Network.dyn_peer[255] 	lookupHopsSig:mean 	13.6
scalar Network.dyn_peer[256] 	lookupTimeSig:mean 	1.3
scalar Network.dyn_peer[256] 	lookupStabilitySig:mean 	0.45170351192355
scalar Network.dyn_peer[256] 	lookupHopsSig:mean 	12.2
scalar Network.dyn_peer[257] 	lookupTimeSig:mean 	1.95
scalar Network.dyn_peer[257] 	lookupStabilitySig:mean 	0.58231041021645
scalar Network.dyn_peer[257] 	lookupHopsSig:mean 	18.75
scalar Network.dyn_peer[258] 	lookupTimeSig:mean 	1.4285714285714
scalar Network.dyn_peer[258] 	lookupStabilitySig:mean 	0.76816376844155
scalar Network.dyn_peer[258] 	lookupHopsSig:mean 	13.428571428571
scalar Network.dyn_peer[259] 	lookupTimeSig:mean 	1.8
scalar Network.dyn_peer[259] 	lookupStabilitySig:mean 	0.86100033091913
scalar Network.dyn_peer[259] 	lookupHopsSig:mean 	17.071428571429
scalar Network.dyn_peer[260] 	lookupTimeSig:mean 	1.9666666666667
scalar Network.dyn_peer[260] 	lookupStabilitySig:mean 	0.91000460183972
scalar Network.dyn_peer[260] 	lookupHopsSig:mean 	18.777777777778
scalar Network.dyn_peer[261] 	lookupTimeSig:mean 	1.6166666666667
scalar Network.dyn_peer[261] 	lookupStabilitySig:mean 	0.72105631418526
scalar Network.dyn_peer[261] 	lookupHopsSig:mean 	15.333333333333
scalar Network.dyn_peer[262] 	lookupTimeSig:mean 	1.59
scalar Network.dyn_peer[262] 	lookupStabilitySig:mean 	0.94334522262216
scalar Network.dyn_peer[262] 	lookupHopsSig:mean 	15
scalar Network.dyn_peer[263] 	lookupTimeSig:mean 	2.275
scalar Network.dyn_peer[263] 	lookupStabilitySig:mean 	0.49608405679464
scalar Network.dyn_peer[263] 	lookupHopsSig:mean 	22
scalar Network.dyn_peer[264] 	lookupTimeSig:mean 	2.875
scalar Network.dyn_peer[264] 	lookupStabilitySig:mean 	0.30565475299954
scalar Network.dyn_peer[264] 	lookupHopsSig:mean 	28
scalar Network.dyn_peer[265] 	lookupTimeSig:mean 	1.1166666666667
scalar Network.dyn_peer[265] 	lookupStabilitySig:mean 	0.55416835270201
scalar Network.dyn_peer[265] 	lookupHopsSig:mean 	10.333333333333
scalar Network.dyn_peer[266] 	lookupTimeSig:mean 	1.4285714285714
scalar Network.dyn_peer[266] 	lookupStabilitySig:mean 	0.71708364837936
scalar Network.dyn_peer[266] 	lookupHopsSig:mean 	13.428571428571
scalar Network.dyn_peer[267] 	lookupTimeSig:mean 	1.1333333333333
scalar Network.dyn_peer[267] 	lookupStabilitySig:mean 	0.50992168858647
scalar Network.dyn_peer[267] 	lookupHopsSig:mean 	10.666666666667
scalar Network.dyn_peer[268] 	lookupTimeSig:mean 	1.5666666666667
scalar Network.dyn_peer[268] 	lookupStabilitySig:mean 	0.17010452349981
scalar Network.dyn_peer[268] 	lookupHopsSig:mean 	15
scalar Network.dyn_peer[269] 	lookupTimeSig:mean 	1.1333333333333
scalar Network.dyn_peer[269] 	lookupStabilitySig:mean 	0.51320780379077
scalar Network.dyn_peer[269] 	lookupHopsSig:mean 	10.5
scalar Network.dyn_peer[270] 	lookupTimeSig:mean 	1.75
scalar Network.dyn_peer[270] 	lookupStabilitySig:mean 	0.28114940226078
scalar Network.dyn_peer[270] 	lookupHopsSig:mean 	16.75
scalar Network.dyn_peer[271] 	lookupTimeSig:mean 	1.54
scalar Network.dyn_peer[271] 	lookupStabilitySig:mean 	0.47730823345482
scalar Network.dyn_peer[271] 	lookupHopsSig:mean 	14.6
scalar Network.dyn_peer[272] 	lookupTimeSig:mean 	1.7636363636364
scalar Network.dyn_peer[272] 	lookupStabilitySig:mean 	0.80227560236711
scalar Network.dyn_peer[272] 	lookupHopsSig:mean 	16.727272727273
scalar Network.dyn_peer[273] 	lookupTimeSig:mean 	1.65
scalar Network.dyn_peer[273] 	lookupStabilitySig:mean 	0.87670193403028
scalar Network.dyn_peer[273] 	lookupHopsSig:mean 	15.625
scalar Network.dyn_peer[274] 	lookupTimeSig:mean 	2.15
scalar Network.dyn_peer[274] 	lookupStabilitySig:mean 	0.82332767685875
scalar Network.dyn_peer[274] 	lookupHopsSig:mean 	20.75
scalar Network.dyn_peer[275] 	lookupTimeSig:mean 	1.7166666666667
scalar Network.dyn_peer[275] 	lookupStabilitySig:mean 	0.70245075722535
scalar Network.dyn_peer[275] 	lookupHopsSig:mean 	16.333333333333
scalar Network.dyn_peer[276] 	lookupTimeSig:mean 	1.42
scalar Network.dyn_peer[276] 	lookupStabilitySig:mean 	0.57099146097898
scalar Network.dyn_peer[276] 	lookupHopsSig:mean 	13.4
scalar Network.dyn_peer[277] 	lookupTimeSig:mean 	1.8333333333333
scalar Network.dyn_peer[277] 	lookupStabilitySig:mean 	0.35023614019156
scalar Network.dyn_peer[277] 	lookupHopsSig:mean 	17.666666666667
scalar Network.dyn_peer[278] 	lookupTimeSig:mean 	2.1142857142857
scalar Network.dyn_peer[278] 	lookupStabilitySig:mean 	0.72086244981204
scalar Network.dyn_peer[278] 	lookupHopsSig:mean 	20.285714285714
scalar Network.dyn_peer[279] 	lookupTimeSig:mean 	1.3818181818182
scalar Network.dyn_peer[279] 	lookupStabilitySig:mean 	0.8159863924269
scalar Network.dyn_peer[279] 	lookupHopsSig:mean 	12.909090909091
scalar Network.dyn_peer[280] 	lookupTimeSig:mean 	1.3
scalar Network.dyn_peer[280] 	lookupStabilitySig:mean 	0.51297495365143
scalar Network.dyn_peer[280] 	lookupHopsSig:mean 	12.2
scalar Network.dyn_peer[281] 	lookupTimeSig:mean 	2.1714285714286
scalar Network.dyn_peer[281] 	lookupStabilitySig:mean 	0.89214553577559
scalar Network.dyn_peer[281] 	lookupHopsSig:mean 	20.857142857143
scalar Network.dyn_peer[282] 	lookupTimeSig:mean 	3.6333333333333
scalar Network.dyn_peer[282] 	lookupStabilitySig:mean 	0.84522442830106
scalar Network.dyn_peer[282] 	lookupHopsSig:mean 	35.666666666667
scalar Network.dyn_peer[283] 	lookupTimeSig:mean 	1.96
scalar Network.dyn_peer[283] 	lookupStabilitySig:mean 	0.86468167416751
scalar Network.dyn_peer[283] 	lookupHopsSig:mean 	18.8
scalar Network.dyn_peer[284] 	lookupTimeSig:mean 	2.26
scalar Network.dyn_peer[284] 	lookupStabilitySig:mean 	0.80731850415468
scalar Network.dyn_peer[284] 	lookupHopsSig:mean 	21.8
scalar Network.dyn_peer[285] 	lookupTimeSig:mean 	2.3111111111111
scalar Network.dyn_peer[285] 	lookupStabilitySig:mean 	0.90456329741412
scalar Network.dyn_peer[285] 	lookupHopsSig:mean 	22.222222222222
scalar Network.dyn_peer[286] 	lookupTimeSig:mean 	1.54
scalar Network.dyn_peer[286] 	lookupStabilitySig:mean 	0.75003288239241
scalar Network.dyn_peer[286] 	lookupHopsSig:mean 	14.6
scalar Network.dyn_peer[287] 	lookupTimeSig:mean 	1.9857142857143
scalar Network.dyn_peer[287] 	lookupStabilitySig:mean 	0.86637154860156
scalar Network.dyn_peer[287] 	lookupHopsSig:mean 	19
scalar Network.dyn_peer[288] 	lookupTimeSig:mean 	2.5666666666667
scalar Network.dyn_peer[288] 	lookupStabilitySig:mean 	0.62175548573335
scalar Network.dyn_peer[288] 	lookupHopsSig:mean 	25
scalar Network.dyn_peer[289] 	lookupTimeSig:mean 	1.95
scalar Network.dyn_peer[289] 	lookupStabilitySig:mean 	0.10714285075665
scalar Network.dyn_peer[289] 	lookupHopsSig:mean 	19
scalar Network.dyn_peer[290] 	lookupTimeSig:mean 	1.6
scalar Network.dyn_peer[290] 	lookupStabilitySig:mean 	0.4697589147836
scalar Network.dyn_peer[290] 	lookupHopsSig:mean 	15.25
scalar Network.dyn_peer[291] 	lookupTimeSig:mean 	1.32
scalar Network.dyn_peer[291] 	lookupStabilitySig:mean 	0.53829747885466
scalar Network.dyn_peer[291] 	lookupHopsSig:mean 	12.4
scalar Network.dyn_peer[292] 	lookupTimeSig:mean 	6.05
scalar Network.dyn_peer[292] 	lookupStabilitySig:mean 	-0.25529538840055
scalar Network.dyn_peer[292] 	lookupHopsSig:mean 	60
scalar Network.dyn_peer[293] 	lookupTimeSig:mean 	1.725
scalar Network.dyn_peer[293] 	lookupStabilitySig:mean 	0.75350063480437
scalar Network.dyn_peer[293] 	lookupHopsSig:mean 	16.375
scalar Network.dyn_peer[294] 	lookupTimeSig:mean 	0.9
scalar Network.dyn_peer[294] 	lookupStabilitySig:mean 	0.26666666567326
scalar Network.dyn_peer[294] 	lookupHopsSig:mean 	8.3333333333333
scalar Network.dyn_peer[295] 	lookupTimeSig:mean 	1.325
scalar Network.dyn_peer[295] 	lookupStabilitySig:mean 	0.79723793081939
scalar Network.dyn_peer[295] 	lookupHopsSig:mean 	12.5
scalar Network.dyn_peer[296] 	lookupTimeSig:mean 	3.1333333333333
scalar Network.dyn_peer[296] 	lookupStabilitySig:mean 	0.096230591336886
scalar Network.dyn_peer[296] 	lookupHopsSig:mean 	30.666666666667
scalar Network.dyn_peer[297] 	lookupTimeSig:mean 	1.9
scalar Network.dyn_peer[297] 	lookupStabilitySig:mean 	0.17540686329206
scalar Network.dyn_peer[297] 	lookupHopsSig:mean 	18.333333333333
scalar Network.dyn_peer[298] 	lookupTimeSig:mean 	1.85
scalar Network.dyn_peer[298] 	lookupStabilitySig:mean 	0.25685587339103
scalar Network.dyn_peer[298] 	lookupHopsSig:mean 	17.75
scalar Network.dyn_peer[299] 	lookupTimeSig:mean 	0.98
scalar Network.dyn_peer[299] 	lookupStabilitySig:mean 	0.42193993404508
scalar Network.dyn_peer[299] 	lookupHopsSig:mean 	9
scalar Network.dyn_peer[300] 	lookupTimeSig:mean 	0.925
scalar Network.dyn_peer[300] 	lookupStabilitySig:mean 	0.49883958697319
scalar Network.dyn_peer[300] 	lookupHopsSig:mean 	8.5
scalar Network.dyn_peer[301] 	lookupTimeSig:mean 	2.3333333333333
scalar Network.dyn_peer[301] 	lookupStabilitySig:mean 	0.64298086613417
scalar Network.dyn_peer[301] 	lookupHopsSig:mean 	22.666666666667
scalar Network.dyn_peer[302] 	lookupTimeSig:mean 	2.2125
scalar Network.dyn_peer[302] 	lookupStabilitySig:mean 	0.9247945699608
scalar Network.dyn_peer[302] 	lookupHopsSig:mean 	21.25
scalar Network.dyn_peer[303] 	lookupTimeSig:mean 	2.6444444444444
scalar Network.dyn_peer[303] 	lookupStabilitySig:mean 	0.94879094480226
scalar Network.dyn_peer[303] 	lookupHopsSig:mean 	25.555555555556
scalar Network.dyn_peer[304] 	lookupTimeSig:mean 	1.3333333333333
scalar Network.dyn_peer[304] 	lookupStabilitySig:mean 	0.85262660022515
scalar Network.dyn_peer[304] 	lookupHopsSig:mean 	12.5
scalar Network.dyn_peer[305] 	lookupTimeSig:mean 	5.55
scalar Network.dyn_peer[305] 	lookupStabilitySig:mean 	0.076704561710358
scalar Network.dyn_peer[305] 	lookupHopsSig:mean 	55
scalar Network.dyn_peer[306] 	lookupTimeSig:mean 	0.925
scalar Network.dyn_peer[306] 	lookupStabilitySig:mean 	0.77045874285977
scalar Network.dyn_peer[306] 	lookupHopsSig:mean 	8.375
scalar Network.dyn_peer[307] 	lookupTimeSig:mean 	2.65
scalar Network.dyn_peer[307] 	lookupStabilitySig:mean 	0.88988628098741
scalar Network.dyn_peer[307] 	lookupHopsSig:mean 	25.75
scalar Network.dyn_peer[308] 	lookupTimeSig:mean 	1.4666666666667
scalar Network.dyn_peer[308] 	lookupStabilitySig:mean 	0.87963380680109
scalar Network.dyn_peer[308] 	lookupHopsSig:mean 	13.833333333333
scalar Network.dyn_peer[309] 	lookupTimeSig:mean 	1.3
scalar Network.dyn_peer[309] 	lookupStabilitySig:mean 	0.7389985550195
scalar Network.dyn_peer[309] 	lookupHopsSig:mean 	12.1
scalar Network.dyn_peer[310] 	lookupTimeSig:mean 	2.2666666666667
scalar Network.dyn_peer[310] 	lookupStabilitySig:mean 	0.68400944272677
scalar Network.dyn_peer[310] 	lookupHopsSig:mean 	22
scalar Network.dyn_peer[311] 	lookupTimeSig:mean 	1.5222222222222
scalar Network.dyn_peer[311] 	lookupStabilitySig:mean 	0.76767965012954
scalar Network.dyn_peer[311] 	lookupHopsSig:mean 	14.333333333333
scalar Network.dyn_peer[312] 	lookupTimeSig:mean 	1.8111111111111
scalar Network.dyn_peer[312] 	lookupStabilitySig:mean 	0.76469553665568
scalar Network.dyn_peer[312] 	lookupHopsSig:mean 	17.222222222222
scalar Network.dyn_peer[313] 	lookupTimeSig:mean 	1.7875
scalar Network.dyn_peer[313] 	lookupStabilitySig:mean 	0.73944982024841
scalar Network.dyn_peer[313] 	lookupHopsSig:mean 	17
scalar Network.dyn_peer[314] 	lookupTimeSig:mean 	2.4
scalar Network.dyn_peer[314] 	lookupStabilitySig:mean 	-0.32087223231792
scalar Network.dyn_peer[314] 	lookupHopsSig:mean 	23.5
scalar Network.dyn_peer[315] 	lookupTimeSig:mean 	1.8272727272727
scalar Network.dyn_peer[315] 	lookupStabilitySig:mean 	0.76661169664426
scalar Network.dyn_peer[315] 	lookupHopsSig:mean 	17.363636363636
scalar Network.dyn_peer[316] 	lookupTimeSig:mean 	1.46
scalar Network.dyn_peer[316] 	lookupStabilitySig:mean 	0.83747519720346
scalar Network.dyn_peer[316] 	lookupHopsSig:mean 	13.8
scalar Network.dyn_peer[317] 	lookupTimeSig:mean 	0.7
scalar Network.dyn_peer[317] 	lookupStabilitySig:mean 	0.62775007010038
scalar Network.dyn_peer[317] 	lookupHopsSig:mean 	6.1428571428571
scalar Network.dyn_peer[318] 	lookupTimeSig:mean 	1.25
scalar Network.dyn_peer[318] 	lookupStabilitySig:mean 	0.63254957087338
scalar Network.dyn_peer[318] 	lookupHopsSig:mean 	11.75
scalar Network.dyn_peer[319] 	lookupTimeSig:mean 	1.5181818181818
scalar Network.dyn_peer[319] 	lookupStabilitySig:mean 	0.84263063332235
scalar Network.dyn_peer[319] 	lookupHopsSig:mean 	14.272727272727
scalar Network.dyn_peer[320] 	lookupTimeSig:mean 	2.2
scalar Network.dyn_peer[320] 	lookupStabilitySig:mean 	0.91569852469755
scalar Network.dyn_peer[320] 	lookupHopsSig:mean 	21.142857142857
scalar Network.dyn_peer[321] 	lookupTimeSig:mean 	1.4428571428571
scalar Network.dyn_peer[321] 	lookupStabilitySig:mean 	0.90644910392751
scalar Network.dyn_peer[321] 	lookupHopsSig:mean 	13.5
scalar Network.dyn_peer[322] 	lookupTimeSig:mean 	2.12
scalar Network.dyn_peer[322] 	lookupStabilitySig:mean 	0.43749983198941
scalar Network.dyn_peer[322] 	lookupHopsSig:mean 	20.4
scalar Network.dyn_peer[323] 	lookupTimeSig:mean 	2.7833333333333
scalar Network.dyn_peer[323] 	lookupStabilitySig:mean 	0.95036687191653
scalar Network.dyn_peer[323] 	lookupHopsSig:mean 	27
scalar Network.dyn_peer[324] 	lookupTimeSig:mean 	1.94
scalar Network.dyn_peer[324] 	lookupStabilitySig:mean 	0.79598117405549
scalar Network.dyn_peer[324] 	lookupHopsSig:mean 	18.5
scalar Network.dyn_peer[325] 	lookupTimeSig:mean 	1.3
scalar Network.dyn_peer[325] 	lookupStabilitySig:mean 	0.6130347934862
scalar Network.dyn_peer[325] 	lookupHopsSig:mean 	12.166666666667
scalar Network.dyn_peer[326] 	lookupTimeSig:mean 	1.95
scalar Network.dyn_peer[326] 	lookupStabilitySig:mean 	0.5456081032753
scalar Network.dyn_peer[326] 	lookupHopsSig:mean 	19
scalar Network.dyn_peer[327] 	lookupTimeSig:mean 	0.87142857142857
scalar Network.dyn_peer[327] 	lookupStabilitySig:mean 	0.66095963280116
scalar Network.dyn_peer[327] 	lookupHopsSig:mean 	7.8571428571429
scalar Network.dyn_peer[328] 	lookupTimeSig:mean 	1.75
scalar Network.dyn_peer[328] 	lookupStabilitySig:mean 	0.45993787422776
scalar Network.dyn_peer[328] 	lookupHopsSig:mean 	16.75
scalar Network.dyn_peer[329] 	lookupTimeSig:mean 	2.9833333333333
scalar Network.dyn_peer[329] 	lookupStabilitySig:mean 	0.94484763545915
scalar Network.dyn_peer[329] 	lookupHopsSig:mean 	29
scalar Network.dyn_peer[330] 	lookupTimeSig:mean 	1.5222222222222
scalar Network.dyn_peer[330] 	lookupStabilitySig:mean 	0.67025491740141
scalar Network.dyn_peer[330] 	lookupHopsSig:mean 	14.333333333333
scalar Network.dyn_peer[331] 	lookupTimeSig:mean 	1.6
scalar Network.dyn_peer[331] 	lookupStabilitySig:mean 	0.79035039553419
scalar Network.dyn_peer[331] 	lookupHopsSig:mean 	15.1
scalar Network.dyn_peer[332] 	lookupTimeSig:mean 	2.225
scalar Network.dyn_peer[332] 	lookupStabilitySig:mean 	0.72222119942307
scalar Network.dyn_peer[332] 	lookupHopsSig:mean 	21.5
scalar Network.dyn_peer[333] 	lookupTimeSig:mean 	0.92
scalar Network.dyn_peer[333] 	lookupStabilitySig:mean 	0.51993746608496
scalar Network.dyn_peer[333] 	lookupHopsSig:mean 	8.4
scalar Network.dyn_peer[334] 	lookupTimeSig:mean 	1.025
scalar Network.dyn_peer[334] 	lookupStabilitySig:mean 	0.62724122032523
scalar Network.dyn_peer[334] 	lookupHopsSig:mean 	9.5
scalar Network.dyn_peer[335] 	lookupTimeSig:mean 	1.54
scalar Network.dyn_peer[335] 	lookupStabilitySig:mean 	0.6996540736407
scalar Network.dyn_peer[335] 	lookupHopsSig:mean 	14.6
scalar Network.dyn_peer[336] 	lookupTimeSig:mean 	1.9428571428571
scalar Network.dyn_peer[336] 	lookupStabilitySig:mean 	0.77207631112209
scalar Network.dyn_peer[336] 	lookupHopsSig:mean 	18.571428571429
scalar Network.dyn_peer[337] 	lookupTimeSig:mean 	1.5384615384615
scalar Network.dyn_peer[337] 	lookupStabilitySig:mean 	0.95282610785216
scalar Network.dyn_peer[337] 	lookupHopsSig:mean 	14.461538461538
scalar Network.dyn_peer[338] 	lookupTimeSig:mean 	2.06
scalar Network.dyn_peer[338] 	lookupStabilitySig:mean 	0.48558288253844
scalar Network.dyn_peer[338] 	lookupHopsSig:mean 	19.8
scalar Network.dyn_peer[339] 	lookupTimeSig:mean 	1.45
scalar Network.dyn_peer[339] 	lookupStabilitySig:mean 	0.45363858342171
scalar Network.dyn_peer[339] 	lookupHopsSig:mean 	13.75
scalar Network.dyn_peer[340] 	lookupTimeSig:mean 	1.68
scalar Network.dyn_peer[340] 	lookupStabilitySig:mean 	0.52815263625234
scalar Network.dyn_peer[340] 	lookupHopsSig:mean 	16
scalar Network.dyn_peer[341] 	lookupTimeSig:mean 	1.25
scalar Network.dyn_peer[341] 	lookupStabilitySig:mean 	0.86420557736087
scalar Network.dyn_peer[341] 	lookupHopsSig:mean 	11.571428571429
scalar Network.dyn_peer[342] 	lookupTimeSig:mean 	0.95
scalar Network.dyn_peer[342] 	lookupStabilitySig:mean 	0.51884057745337
scalar Network.dyn_peer[342] 	lookupHopsSig:mean 	8.75
scalar Network.dyn_peer[343] 	lookupTimeSig:mean 	1.4571428571429
scalar Network.dyn_peer[343] 	lookupStabilitySig:mean 	0.68203684820661
scalar Network.dyn_peer[343] 	lookupHopsSig:mean 	13.714285714286
scalar Network.dyn_peer[344] 	lookupTimeSig:mean 	2.45
scalar Network.dyn_peer[344] 	lookupStabilitySig:mean 	0.60984498076141
scalar Network.dyn_peer[344] 	lookupHopsSig:mean 	23.75
scalar Network.dyn_peer[345] 	lookupTimeSig:mean 	1.3142857142857
scalar Network.dyn_peer[345] 	lookupStabilitySig:mean 	0.70444502947586
scalar Network.dyn_peer[345] 	lookupHopsSig:mean 	12.285714285714
scalar Network.dyn_peer[346] 	lookupTimeSig:mean 	1.9
scalar Network.dyn_peer[346] 	lookupStabilitySig:mean 	0.86817100768288
scalar Network.dyn_peer[346] 	lookupHopsSig:mean 	18.166666666667
scalar Network.dyn_peer[347] 	lookupTimeSig:mean 	2.7833333333333
scalar Network.dyn_peer[347] 	lookupStabilitySig:mean 	0.94318761971469
scalar Network.dyn_peer[347] 	lookupHopsSig:mean 	27
scalar Network.dyn_peer[348] 	lookupTimeSig:mean 	2.0166666666667
scalar Network.dyn_peer[348] 	lookupStabilitySig:mean 	0.89780023864781
scalar Network.dyn_peer[348] 	lookupHopsSig:mean 	19.25
scalar Network.dyn_peer[349] 	lookupTimeSig:mean 	2
scalar Network.dyn_peer[349] 	lookupStabilitySig:mean 	0.93251044486533
scalar Network.dyn_peer[349] 	lookupHopsSig:mean 	19.125
scalar Network.dyn_peer[350] 	lookupTimeSig:mean 	2.64
scalar Network.dyn_peer[350] 	lookupStabilitySig:mean 	0.88718361668289
scalar Network.dyn_peer[350] 	lookupHopsSig:mean 	25.6
scalar Network.dyn_peer[351] 	lookupTimeSig:mean 	2.05
scalar Network.dyn_peer[351] 	lookupStabilitySig:mean 	0.82917987005785
scalar Network.dyn_peer[351] 	lookupHopsSig:mean 	19.6
scalar Network.dyn_peer[352] 	lookupTimeSig:mean 	1.5
scalar Network.dyn_peer[352] 	lookupStabilitySig:mean 	0.31463903002441
scalar Network.dyn_peer[352] 	lookupHopsSig:mean 	14.25
scalar Network.dyn_peer[353] 	lookupTimeSig:mean 	1.5
scalar Network.dyn_peer[353] 	lookupStabilitySig:mean 	0.72319245804101
scalar Network.dyn_peer[353] 	lookupHopsSig:mean 	14.25
scalar Network.dyn_peer[354] 	lookupTimeSig:mean 	1.6125
scalar Network.dyn_peer[354] 	lookupStabilitySig:mean 	0.91962437471375
scalar Network.dyn_peer[354] 	lookupHopsSig:mean 	15.25
scalar Network.dyn_peer[355] 	lookupTimeSig:mean 	2
scalar Network.dyn_peer[355] 	lookupStabilitySig:mean 	0.31397305925687
scalar Network.dyn_peer[355] 	lookupHopsSig:mean 	19.333333333333
scalar Network.dyn_peer[356] 	lookupTimeSig:mean 	1.65
scalar Network.dyn_peer[356] 	lookupStabilitySig:mean 	0.57078723795712
scalar Network.dyn_peer[356] 	lookupHopsSig:mean 	15.75
scalar Network.dyn_peer[357] 	lookupTimeSig:mean 	2.775
scalar Network.dyn_peer[357] 	lookupStabilitySig:mean 	0.82506370451301
scalar Network.dyn_peer[357] 	lookupHopsSig:mean 	27
scalar Network.dyn_peer[358] 	lookupTimeSig:mean 	1.48
scalar Network.dyn_peer[358] 	lookupStabilitySig:mean 	0.48084358870983
scalar Network.dyn_peer[358] 	lookupHopsSig:mean 	14
scalar Network.dyn_peer[359] 	lookupTimeSig:mean 	1.8125
scalar Network.dyn_peer[359] 	lookupStabilitySig:mean 	0.76294618903194
scalar Network.dyn_peer[359] 	lookupHopsSig:mean 	17.25
scalar Network.dyn_peer[360] 	lookupTimeSig:mean 	2.4428571428571
scalar Network.dyn_peer[360] 	lookupStabilitySig:mean 	0.95268716762907
scalar Network.dyn_peer[360] 	lookupHopsSig:mean 	23.571428571429
scalar Network.dyn_peer[361] 	lookupTimeSig:mean 	2.1333333333333
scalar Network.dyn_peer[361] 	lookupStabilitySig:mean 	0.35705837607384
scalar Network.dyn_peer[361] 	lookupHopsSig:mean 	20.666666666667
scalar Network.dyn_peer[362] 	lookupTimeSig:mean 	1.6333333333333
scalar Network.dyn_peer[362] 	lookupStabilitySig:mean 	0.7938186104099
scalar Network.dyn_peer[362] 	lookupHopsSig:mean 	15.416666666667
scalar Network.dyn_peer[363] 	lookupTimeSig:mean 	1.4
scalar Network.dyn_peer[363] 	lookupStabilitySig:mean 	0.89017687144224
scalar Network.dyn_peer[363] 	lookupHopsSig:mean 	13.125
scalar Network.dyn_peer[364] 	lookupTimeSig:mean 	2.11
scalar Network.dyn_peer[364] 	lookupStabilitySig:mean 	0.87586973300204
scalar Network.dyn_peer[364] 	lookupHopsSig:mean 	20.2
scalar Network.dyn_peer[365] 	lookupTimeSig:mean 	1.7
scalar Network.dyn_peer[365] 	lookupStabilitySig:mean 	0.4733001490434
scalar Network.dyn_peer[365] 	lookupHopsSig:mean 	16.333333333333
scalar Network.dyn_peer[366] 	lookupTimeSig:mean 	1.8
scalar Network.dyn_peer[366] 	lookupStabilitySig:mean 	0.51068969070911
scalar Network.dyn_peer[366] 	lookupHopsSig:mean 	17.333333333333
scalar Network.dyn_peer[367] 	lookupTimeSig:mean 	1.2125
scalar Network.dyn_peer[367] 	lookupStabilitySig:mean 	0.6810770748416
scalar Network.dyn_peer[367] 	lookupHopsSig:mean 	11.25
scalar Network.dyn_peer[368] 	lookupTimeSig:mean 	2.4166666666667
scalar Network.dyn_peer[368] 	lookupStabilitySig:mean 	0.7421722363991
scalar Network.dyn_peer[368] 	lookupHopsSig:mean 	23.333333333333
scalar Network.dyn_peer[369] 	lookupTimeSig:mean 	1.2714285714286
scalar Network.dyn_peer[369] 	lookupStabilitySig:mean 	0.77284252903025
scalar Network.dyn_peer[369] 	lookupHopsSig:mean 	11.857142857143
scalar Network.dyn_peer[370] 	lookupTimeSig:mean 	2.2714285714286
scalar Network.dyn_peer[370] 	lookupStabilitySig:mean 	0.8625223941968
scalar Network.dyn_peer[370] 	lookupHopsSig:mean 	21.857142857143
scalar Network.dyn_peer[371] 	lookupTimeSig:mean 	2.26
scalar Network.dyn_peer[371] 	lookupStabilitySig:mean 	0.84160395860672
scalar Network.dyn_peer[371] 	lookupHopsSig:mean 	21.8
scalar Network.dyn_peer[372] 	lookupTimeSig:mean 	1.6142857142857
scalar Network.dyn_peer[372] 	lookupStabilitySig:mean 	0.91176024132541
scalar Network.dyn_peer[372] 	lookupHopsSig:mean 	15.285714285714
scalar Network.dyn_peer[373] 	lookupTimeSig:mean 	0.94
scalar Network.dyn_peer[373] 	lookupStabilitySig:mean 	0.69864352606237
scalar Network.dyn_peer[373] 	lookupHopsSig:mean 	8.6
scalar Network.dyn_peer[374] 	lookupTimeSig:mean 	2.3
scalar Network.dyn_peer[374] 	lookupStabilitySig:mean 	0.67172465225061
scalar Network.dyn_peer[374] 	lookupHopsSig:mean 	22.333333333333
scalar Network.dyn_peer[375] 	lookupTimeSig:mean 	1.3
scalar Network.dyn_peer[375] 	lookupStabilitySig:mean 	0.63104963178436
scalar Network.dyn_peer[375] 	lookupHopsSig:mean 	12.166666666667
scalar Network.dyn_peer[376] 	lookupTimeSig:mean 	1.9
scalar Network.dyn_peer[376] 	lookupStabilitySig:mean 	0.96494159055874
scalar Network.dyn_peer[376] 	lookupHopsSig:mean 	18.1
scalar Network.dyn_peer[377] 	lookupTimeSig:mean 	3.5
scalar Network.dyn_peer[377] 	lookupStabilitySig:mean 	0.69999999925494
scalar Network.dyn_peer[377] 	lookupHopsSig:mean 	34.5
scalar Network.dyn_peer[378] 	lookupTimeSig:mean 	2.6666666666667
scalar Network.dyn_peer[378] 	lookupStabilitySig:mean 	0.45078153225283
scalar Network.dyn_peer[378] 	lookupHopsSig:mean 	26
scalar Network.dyn_peer[379] 	lookupTimeSig:mean 	2.325
scalar Network.dyn_peer[379] 	lookupStabilitySig:mean 	0.96554195028148
scalar Network.dyn_peer[379] 	lookupHopsSig:mean 	22.375
scalar Network.dyn_peer[380] 	lookupTimeSig:mean 	1.65
scalar Network.dyn_peer[380] 	lookupStabilitySig:mean 	0.39550959318876
scalar Network.dyn_peer[380] 	lookupHopsSig:mean 	15.75
scalar Network.dyn_peer[381] 	lookupTimeSig:mean 	4.7
scalar Network.dyn_peer[381] 	lookupStabilitySig:mean 	0.83082280494273
scalar Network.dyn_peer[381] 	lookupHopsSig:mean 	46.5
scalar Network.dyn_peer[382] 	lookupTimeSig:mean 	6.05
scalar Network.dyn_peer[382] 	lookupStabilitySig:mean 	-0.0070481151342392
scalar Network.dyn_peer[382] 	lookupHopsSig:mean 	60
scalar Network.dyn_peer[383] 	lookupTimeSig:mean 	2.8
scalar Network.dyn_peer[383] 	lookupStabilitySig:mean 	0.92776235491037
scalar Network.dyn_peer[383] 	lookupHopsSig:mean 	27.2
scalar Network.dyn_peer[384] 	lookupTimeSig:mean 	2.5333333333333
scalar Network.dyn_peer[384] 	lookupStabilitySig:mean 	0.77426460882028
scalar Network.dyn_peer[384] 	lookupHopsSig:mean 	24.666666666667
scalar Network.dyn_peer[385] 	lookupTimeSig:mean 	1.3777777777778
scalar Network.dyn_peer[385] 	lookupStabilitySig:mean 	0.87120952462364
scalar Network.dyn_peer[385] 	lookupHopsSig:mean 	12.888888888889
scalar Network.dyn_peer[386] 	lookupTimeSig:mean 	2.6666666666667
scalar Network.dyn_peer[386] 	lookupStabilitySig:mean 	0.62768635898829
scalar Network.dyn_peer[386] 	lookupHopsSig:mean 	26
scalar Network.dyn_peer[387] 	lookupTimeSig:mean 	2.2428571428571
scalar Network.dyn_peer[387] 	lookupStabilitySig:mean 	0.61786221872483
scalar Network.dyn_peer[387] 	lookupHopsSig:mean 	21.571428571429
scalar Network.dyn_peer[388] 	lookupTimeSig:mean 	1.76
scalar Network.dyn_peer[388] 	lookupStabilitySig:mean 	0.83864187933505
scalar Network.dyn_peer[388] 	lookupHopsSig:mean 	16.8
scalar Network.dyn_peer[389] 	lookupTimeSig:mean 	1.2777777777778
scalar Network.dyn_peer[389] 	lookupStabilitySig:mean 	0.8736263414224
scalar Network.dyn_peer[389] 	lookupHopsSig:mean 	11.888888888889
scalar Network.dyn_peer[390] 	lookupTimeSig:mean 	3.4
scalar Network.dyn_peer[390] 	lookupStabilitySig:mean 	0.92655553389341
scalar Network.dyn_peer[390] 	lookupHopsSig:mean 	33.25
scalar Network.dyn_peer[391] 	lookupTimeSig:mean 	1.1636363636364
scalar Network.dyn_peer[391] 	lookupStabilitySig:mean 	0.79257458952171
scalar Network.dyn_peer[391] 	lookupHopsSig:mean 	10.727272727273
scalar Network.dyn_peer[392] 	lookupTimeSig:mean 	1.5833333333333
scalar Network.dyn_peer[392] 	lookupStabilitySig:mean 	0.84564043045975
scalar Network.dyn_peer[392] 	lookupHopsSig:mean 	15
scalar Network.dyn_peer[393] 	lookupTimeSig:mean 	1.9352941176471
scalar Network.dyn_peer[393] 	lookupStabilitySig:mean 	0.95711365501013
scalar Network.dyn_peer[393] 	lookupHopsSig:mean 	18.411764705882
scalar Network.dyn_peer[394] 	lookupTimeSig:mean 	2.6
scalar Network.dyn_peer[394] 	lookupStabilitySig:mean 	0.76119203194976
scalar Network.dyn_peer[394] 	lookupHopsSig:mean 	25.2
scalar Network.dyn_peer[395] 	lookupTimeSig:mean 	1.8444444444444
scalar Network.dyn_peer[395] 	lookupStabilitySig:mean 	0.95657955306686
scalar Network.dyn_peer[395] 	lookupHopsSig:mean 	17.555555555556
scalar Network.dyn_peer[396] 	lookupTimeSig:mean 	2.4
scalar Network.dyn_peer[396] 	lookupStabilitySig:mean 	0.57876176387072
scalar Network.dyn_peer[396] 	lookupHopsSig:mean 	23.5
scalar Network.dyn_peer[397] 	lookupTimeSig:mean 	1.3777777777778
scalar Network.dyn_peer[397] 	lookupStabilitySig:mean 	0.87580296169553
scalar Network.dyn_peer[397] 	lookupHopsSig:mean 	12.888888888889
scalar Network.dyn_peer[398] 	lookupTimeSig:mean 	1.26
scalar Network.dyn_peer[398] 	lookupStabilitySig:mean 	0.68104237616062
scalar Network.dyn_peer[398] 	lookupHopsSig:mean 	11.8
scalar Network.dyn_peer[399] 	lookupTimeSig:mean 	1.825
scalar Network.dyn_peer[399] 	lookupStabilitySig:mean 	0.9390512246755
scalar Network.dyn_peer[399] 	lookupHopsSig:mean 	17.375
scalar Network.dyn_peer[400] 	lookupTimeSig:mean 	1.75
scalar Network.dyn_peer[400] 	lookupStabilitySig:mean 	0.54259635880589
scalar Network.dyn_peer[400] 	lookupHopsSig:mean 	17
scalar Network.dyn_peer[401] 	lookupTimeSig:mean 	1.7666666666667
scalar Network.dyn_peer[401] 	lookupStabilitySig:mean 	0.15050504604975
scalar Network.dyn_peer[401] 	lookupHopsSig:mean 	17
scalar Network.dyn_peer[402] 	lookupTimeSig:mean 	3.1666666666667
scalar Network.dyn_peer[402] 	lookupStabilitySig:mean 	0.85361610601346
scalar Network.dyn_peer[402] 	lookupHopsSig:mean 	31
scalar Network.dyn_peer[403] 	lookupTimeSig:mean 	1.175
scalar Network.dyn_peer[403] 	lookupStabilitySig:mean 	0.62428672984242
scalar Network.dyn_peer[403] 	lookupHopsSig:mean 	11
scalar Network.dyn_peer[404] 	lookupTimeSig:mean 	2.725
scalar Network.dyn_peer[404] 	lookupStabilitySig:mean 	0.89263100130484
scalar Network.dyn_peer[404] 	lookupHopsSig:mean 	26.5
scalar Network.dyn_peer[405] 	lookupTimeSig:mean 	1.7333333333333
scalar Network.dyn_peer[405] 	lookupStabilitySig:mean 	0.93329890631139
scalar Network.dyn_peer[405] 	lookupHopsSig:mean 	16.444444444444
scalar Network.dyn_peer[406] 	lookupTimeSig:mean 	1.225
scalar Network.dyn_peer[406] 	lookupStabilitySig:mean 	0.7110816820059
scalar Network.dyn_peer[406] 	lookupHopsSig:mean 	11.375
scalar Network.dyn_peer[407] 	lookupTimeSig:mean 	2.5
scalar Network.dyn_peer[407] 	lookupStabilitySig:mean 	0.92480405531824
scalar Network.dyn_peer[407] 	lookupHopsSig:mean 	24.2
scalar Network.dyn_peer[408] 	lookupTimeSig:mean 	2.45
scalar Network.dyn_peer[408] 	lookupStabilitySig:mean 	0.86160187004134
scalar Network.dyn_peer[408] 	lookupHopsSig:mean 	23.75
scalar Network.dyn_peer[409] 	lookupTimeSig:mean 	2.525
scalar Network.dyn_peer[409] 	lookupStabilitySig:mean 	0.63235050532967
scalar Network.dyn_peer[409] 	lookupHopsSig:mean 	24.5
scalar Network.dyn_peer[410] 	lookupTimeSig:mean 	1.86
scalar Network.dyn_peer[410] 	lookupStabilitySig:mean 	0.70345376506448
scalar Network.dyn_peer[410] 	lookupHopsSig:mean 	17.8
scalar Network.dyn_peer[411] 	lookupTimeSig:mean 	2.72
scalar Network.dyn_peer[411] 	lookupStabilitySig:mean 	0.9205993482843
scalar Network.dyn_peer[411] 	lookupHopsSig:mean 	26.4
scalar Network.dyn_peer[412] 	lookupTimeSig:mean 	2.2
scalar Network.dyn_peer[412] 	lookupStabilitySig:mean 	0.57029583553473
scalar Network.dyn_peer[412] 	lookupHopsSig:mean 	21.333333333333
scalar Network.dyn_peer[413] 	lookupTimeSig:mean 	2.24
scalar Network.dyn_peer[413] 	lookupStabilitySig:mean 	0.50761526823044
scalar Network.dyn_peer[413] 	lookupHopsSig:mean 	21.6
scalar Network.dyn_peer[414] 	lookupTimeSig:mean 	1.8333333333333
scalar Network.dyn_peer[414] 	lookupStabilitySig:mean 	0.64595171033094
scalar Network.dyn_peer[414] 	lookupHopsSig:mean 	17.5
scalar Network.dyn_peer[415] 	lookupTimeSig:mean 	2.13
scalar Network.dyn_peer[415] 	lookupStabilitySig:mean 	0.96040128783789
scalar Network.dyn_peer[415] 	lookupHopsSig:mean 	20.4
scalar Network.dyn_peer[416] 	lookupTimeSig:mean 	1.55
scalar Network.dyn_peer[416] 	lookupStabilitySig:mean 	0.15151514112949
scalar Network.dyn_peer[416] 	lookupHopsSig:mean 	15
scalar Network.dyn_peer[417] 	lookupTimeSig:mean 	1.5454545454545
scalar Network.dyn_peer[417] 	lookupStabilitySig:mean 	0.82962466329759
scalar Network.dyn_peer[417] 	lookupHopsSig:mean 	14.545454545455
scalar Network.dyn_peer[418] 	lookupTimeSig:mean 	1.8375
scalar Network.dyn_peer[418] 	lookupStabilitySig:mean 	0.74499028292485
scalar Network.dyn_peer[418] 	lookupHopsSig:mean 	17.5
scalar Network.dyn_peer[419] 	lookupTimeSig:mean 	2.275
scalar Network.dyn_peer[419] 	lookupStabilitySig:mean 	0.31302442867309
scalar Network.dyn_peer[419] 	lookupHopsSig:mean 	22
scalar Network.dyn_peer[420] 	lookupTimeSig:mean 	2.1
scalar Network.dyn_peer[420] 	lookupStabilitySig:mean 	0.69698192626238
scalar Network.dyn_peer[420] 	lookupHopsSig:mean 	20.2
scalar Network.dyn_peer[421] 	lookupTimeSig:mean 	2.2
scalar Network.dyn_peer[421] 	lookupStabilitySig:mean 	0.81831244751811
[...]
scalar Network.dyn_peer[895] 	lookupStabilitySig:mean 	0.20899468660355
scalar Network.dyn_peer[895] 	lookupHopsSig:mean 	27.5
scalar Network.dyn_peer[896] 	lookupTimeSig:mean 	2.3444444444444
scalar Network.dyn_peer[896] 	lookupStabilitySig:mean 	0.95518579509937
scalar Network.dyn_peer[896] 	lookupHopsSig:mean 	22.555555555556
scalar Network.dyn_peer[897] 	lookupTimeSig:mean 	1.825
scalar Network.dyn_peer[897] 	lookupStabilitySig:mean 	0.74587666802108
scalar Network.dyn_peer[897] 	lookupHopsSig:mean 	17.5
scalar Network.dyn_peer[898] 	lookupTimeSig:mean 	1.8666666666667
scalar Network.dyn_peer[898] 	lookupStabilitySig:mean 	0.95845470717177
scalar Network.dyn_peer[898] 	lookupHopsSig:mean 	17.75
scalar Network.dyn_peer[899] 	lookupTimeSig:mean 	1.88
scalar Network.dyn_peer[899] 	lookupStabilitySig:mean 	0.89693680144846
scalar Network.dyn_peer[899] 	lookupHopsSig:mean 	18
scalar Network.dyn_peer[900] 	lookupTimeSig:mean 	2.1
scalar Network.dyn_peer[900] 	lookupStabilitySig:mean 	0.94653605118704
scalar Network.dyn_peer[900] 	lookupHopsSig:mean 	20.111111111111
scalar Network.dyn_peer[901] 	lookupTimeSig:mean 	2.075
scalar Network.dyn_peer[901] 	lookupStabilitySig:mean 	0.68140321597457
scalar Network.dyn_peer[901] 	lookupHopsSig:mean 	20
scalar Network.dyn_peer[902] 	lookupTimeSig:mean 	2.2166666666667
scalar Network.dyn_peer[902] 	lookupStabilitySig:mean 	0.88589419983327
scalar Network.dyn_peer[902] 	lookupHopsSig:mean 	21.333333333333
scalar Network.dyn_peer[903] 	lookupTimeSig:mean 	2.4
scalar Network.dyn_peer[903] 	lookupStabilitySig:mean 	0.77804058417678
scalar Network.dyn_peer[903] 	lookupHopsSig:mean 	23.5
scalar Network.dyn_peer[904] 	lookupTimeSig:mean 	3.0666666666667
scalar Network.dyn_peer[904] 	lookupStabilitySig:mean 	0.79749731967847
scalar Network.dyn_peer[904] 	lookupHopsSig:mean 	30
scalar Network.dyn_peer[905] 	lookupTimeSig:mean 	2.6
scalar Network.dyn_peer[905] 	lookupStabilitySig:mean 	0.95656445303134
scalar Network.dyn_peer[905] 	lookupHopsSig:mean 	25.142857142857
scalar Network.dyn_peer[906] 	lookupTimeSig:mean 	1.55
scalar Network.dyn_peer[906] 	lookupStabilitySig:mean 	0.80915940483101
scalar Network.dyn_peer[906] 	lookupHopsSig:mean 	14.625
scalar Network.dyn_peer[907] 	lookupTimeSig:mean 	1.475
scalar Network.dyn_peer[907] 	lookupStabilitySig:mean 	0.59941285755485
scalar Network.dyn_peer[907] 	lookupHopsSig:mean 	14
scalar Network.dyn_peer[908] 	lookupTimeSig:mean 	1.6333333333333
scalar Network.dyn_peer[908] 	lookupStabilitySig:mean 	0.78098969420211
scalar Network.dyn_peer[908] 	lookupHopsSig:mean 	15.444444444444
scalar Network.dyn_peer[909] 	lookupTimeSig:mean 	2.38
scalar Network.dyn_peer[909] 	lookupStabilitySig:mean 	0.86734686382115
scalar Network.dyn_peer[909] 	lookupHopsSig:mean 	23
scalar Network.dyn_peer[910] 	lookupTimeSig:mean 	1.58
scalar Network.dyn_peer[910] 	lookupStabilitySig:mean 	0.73904903009534
scalar Network.dyn_peer[910] 	lookupHopsSig:mean 	15
scalar Network.dyn_peer[911] 	lookupTimeSig:mean 	1.34
scalar Network.dyn_peer[911] 	lookupStabilitySig:mean 	0.82161211967468
scalar Network.dyn_peer[911] 	lookupHopsSig:mean 	12.6
scalar Network.dyn_peer[912] 	lookupTimeSig:mean 	2.4714285714286
scalar Network.dyn_peer[912] 	lookupStabilitySig:mean 	0.94644720020837
scalar Network.dyn_peer[912] 	lookupHopsSig:mean 	23.857142857143
scalar Network.dyn_peer[913] 	lookupTimeSig:mean 	2.0666666666667
scalar Network.dyn_peer[913] 	lookupStabilitySig:mean 	0.78302329033613
scalar Network.dyn_peer[913] 	lookupHopsSig:mean 	20
scalar Network.dyn_peer[914] 	lookupTimeSig:mean 	1.93
scalar Network.dyn_peer[914] 	lookupStabilitySig:mean 	0.92374509775545
scalar Network.dyn_peer[914] 	lookupHopsSig:mean 	18.4
scalar Network.dyn_peer[915] 	lookupTimeSig:mean 	1.775
scalar Network.dyn_peer[915] 	lookupStabilitySig:mean 	0.93331797455903
scalar Network.dyn_peer[915] 	lookupHopsSig:mean 	16.875
scalar Network.dyn_peer[916] 	lookupTimeSig:mean 	2.975
scalar Network.dyn_peer[916] 	lookupStabilitySig:mean 	0.83896367019042
scalar Network.dyn_peer[916] 	lookupHopsSig:mean 	29
scalar Network.dyn_peer[917] 	lookupTimeSig:mean 	0.75555555555556
scalar Network.dyn_peer[917] 	lookupStabilitySig:mean 	0.8504530628367
scalar Network.dyn_peer[917] 	lookupHopsSig:mean 	6.6666666666667
scalar Network.dyn_peer[918] 	lookupTimeSig:mean 	1.925
scalar Network.dyn_peer[918] 	lookupStabilitySig:mean 	0.83548175729811
scalar Network.dyn_peer[918] 	lookupHopsSig:mean 	18.5
scalar Network.dyn_peer[919] 	lookupTimeSig:mean 	1.5
scalar Network.dyn_peer[919] 	lookupStabilitySig:mean 	0.46672455469767
scalar Network.dyn_peer[919] 	lookupHopsSig:mean 	14.333333333333
scalar Network.dyn_peer[920] 	lookupTimeSig:mean 	2.2857142857143
scalar Network.dyn_peer[920] 	lookupStabilitySig:mean 	0.95278020855039
scalar Network.dyn_peer[920] 	lookupHopsSig:mean 	22
scalar Network.dyn_peer[921] 	lookupTimeSig:mean 	1.50625
scalar Network.dyn_peer[921] 	lookupStabilitySig:mean 	0.86566574183234
scalar Network.dyn_peer[921] 	lookupHopsSig:mean 	14.125
scalar Network.dyn_peer[922] 	lookupTimeSig:mean 	1.62
scalar Network.dyn_peer[922] 	lookupStabilitySig:mean 	0.82541908659041
scalar Network.dyn_peer[922] 	lookupHopsSig:mean 	15.4
scalar Network.dyn_peer[923] 	lookupTimeSig:mean 	2.0625
scalar Network.dyn_peer[923] 	lookupStabilitySig:mean 	0.92734948697034
scalar Network.dyn_peer[923] 	lookupHopsSig:mean 	19.75
scalar Network.dyn_peer[924] 	lookupTimeSig:mean 	0.9
scalar Network.dyn_peer[924] 	lookupStabilitySig:mean 	0.20357140898705
scalar Network.dyn_peer[924] 	lookupHopsSig:mean 	8.5
scalar Network.dyn_peer[925] 	lookupTimeSig:mean 	1.4666666666667
scalar Network.dyn_peer[925] 	lookupStabilitySig:mean 	0.84672871915003
scalar Network.dyn_peer[925] 	lookupHopsSig:mean 	13.833333333333
scalar Network.dyn_peer[926] 	lookupTimeSig:mean 	2.0875
scalar Network.dyn_peer[926] 	lookupStabilitySig:mean 	0.937681078678
scalar Network.dyn_peer[926] 	lookupHopsSig:mean 	20
scalar Network.dyn_peer[927] 	lookupTimeSig:mean 	1.3444444444444
scalar Network.dyn_peer[927] 	lookupStabilitySig:mean 	0.85205473818092
scalar Network.dyn_peer[927] 	lookupHopsSig:mean 	12.555555555556
scalar Network.dyn_peer[928] 	lookupTimeSig:mean 	1.6625
scalar Network.dyn_peer[928] 	lookupStabilitySig:mean 	0.90715791360708
scalar Network.dyn_peer[928] 	lookupHopsSig:mean 	15.75
scalar Network.dyn_peer[929] 	lookupTimeSig:mean 	1.9555555555556
scalar Network.dyn_peer[929] 	lookupStabilitySig:mean 	0.85200830673178
scalar Network.dyn_peer[929] 	lookupHopsSig:mean 	18.666666666667
scalar Network.dyn_peer[930] 	lookupTimeSig:mean 	1.6285714285714
scalar Network.dyn_peer[930] 	lookupStabilitySig:mean 	0.77717651373574
scalar Network.dyn_peer[930] 	lookupHopsSig:mean 	15.428571428571
scalar Network.dyn_peer[931] 	lookupTimeSig:mean 	1.55
scalar Network.dyn_peer[931] 	lookupStabilitySig:mean 	0.84475034661591
scalar Network.dyn_peer[931] 	lookupHopsSig:mean 	14.666666666667
scalar Network.dyn_peer[932] 	lookupTimeSig:mean 	2.1666666666667
scalar Network.dyn_peer[932] 	lookupStabilitySig:mean 	0.92467115571102
scalar Network.dyn_peer[932] 	lookupHopsSig:mean 	20.833333333333
scalar Network.dyn_peer[933] 	lookupTimeSig:mean 	2.575
scalar Network.dyn_peer[933] 	lookupStabilitySig:mean 	0.88992155925371
scalar Network.dyn_peer[933] 	lookupHopsSig:mean 	24.875
scalar Network.dyn_peer[934] 	lookupTimeSig:mean 	2.76
scalar Network.dyn_peer[934] 	lookupStabilitySig:mean 	0.90396866165102
scalar Network.dyn_peer[934] 	lookupHopsSig:mean 	26.8
scalar Network.dyn_peer[935] 	lookupTimeSig:mean 	1.6833333333333
scalar Network.dyn_peer[935] 	lookupStabilitySig:mean 	0.86524218025928
scalar Network.dyn_peer[935] 	lookupHopsSig:mean 	16
scalar Network.dyn_peer[936] 	lookupTimeSig:mean 	1.9
scalar Network.dyn_peer[936] 	lookupStabilitySig:mean 	0.86144922859967
scalar Network.dyn_peer[936] 	lookupHopsSig:mean 	18.142857142857
scalar Network.dyn_peer[937] 	lookupTimeSig:mean 	2.16
scalar Network.dyn_peer[937] 	lookupStabilitySig:mean 	0.85506810024381
scalar Network.dyn_peer[937] 	lookupHopsSig:mean 	20.8
scalar Network.dyn_peer[938] 	lookupTimeSig:mean 	1.48
scalar Network.dyn_peer[938] 	lookupStabilitySig:mean 	0.85176286250353
scalar Network.dyn_peer[938] 	lookupHopsSig:mean 	14
scalar Network.dyn_peer[939] 	lookupTimeSig:mean 	1.65
scalar Network.dyn_peer[939] 	lookupStabilitySig:mean 	0.77479229401797
scalar Network.dyn_peer[939] 	lookupHopsSig:mean 	15.75
scalar Network.dyn_peer[940] 	lookupTimeSig:mean 	1.7166666666667
scalar Network.dyn_peer[940] 	lookupStabilitySig:mean 	0.89768160879612
scalar Network.dyn_peer[940] 	lookupHopsSig:mean 	16.333333333333
scalar Network.dyn_peer[941] 	lookupTimeSig:mean 	4.1
scalar Network.dyn_peer[941] 	lookupStabilitySig:mean 	0.43969691793124
scalar Network.dyn_peer[941] 	lookupHopsSig:mean 	40.333333333333
scalar Network.dyn_peer[942] 	lookupTimeSig:mean 	1.5142857142857
scalar Network.dyn_peer[942] 	lookupStabilitySig:mean 	0.90592475780951
scalar Network.dyn_peer[942] 	lookupHopsSig:mean 	14.285714285714
scalar Network.dyn_peer[943] 	lookupTimeSig:mean 	2.125
scalar Network.dyn_peer[943] 	lookupStabilitySig:mean 	0.6958357449621
scalar Network.dyn_peer[943] 	lookupHopsSig:mean 	20.5
scalar Network.dyn_peer[944] 	lookupTimeSig:mean 	1.0833333333333
scalar Network.dyn_peer[944] 	lookupStabilitySig:mean 	0.7231277336056
scalar Network.dyn_peer[944] 	lookupHopsSig:mean 	10
scalar Network.dyn_peer[945] 	lookupTimeSig:mean 	1.0333333333333
scalar Network.dyn_peer[945] 	lookupStabilitySig:mean 	0.65588315576315
scalar Network.dyn_peer[945] 	lookupHopsSig:mean 	9.6666666666667
scalar Network.dyn_peer[946] 	lookupTimeSig:mean 	1.5333333333333
scalar Network.dyn_peer[946] 	lookupStabilitySig:mean 	0.82487173337075
scalar Network.dyn_peer[946] 	lookupHopsSig:mean 	14.444444444444
scalar Network.dyn_peer[947] 	lookupTimeSig:mean 	2.36
scalar Network.dyn_peer[947] 	lookupStabilitySig:mean 	0.8822656173259
scalar Network.dyn_peer[947] 	lookupHopsSig:mean 	22.8
scalar Network.dyn_peer[948] 	lookupTimeSig:mean 	1.2
scalar Network.dyn_peer[948] 	lookupStabilitySig:mean 	0.83570032339776
scalar Network.dyn_peer[948] 	lookupHopsSig:mean 	11.125
scalar Network.dyn_peer[949] 	lookupTimeSig:mean 	2.1333333333333
scalar Network.dyn_peer[949] 	lookupStabilitySig:mean 	0.87644983393451
scalar Network.dyn_peer[949] 	lookupHopsSig:mean 	20.5
scalar Network.dyn_peer[950] 	lookupTimeSig:mean 	1.8222222222222
scalar Network.dyn_peer[950] 	lookupStabilitySig:mean 	0.9484327852519
scalar Network.dyn_peer[950] 	lookupHopsSig:mean 	17.333333333333
scalar Network.dyn_peer[951] 	lookupTimeSig:mean 	0.45
scalar Network.dyn_peer[951] 	lookupStabilitySig:mean 	0.47222220897675
scalar Network.dyn_peer[951] 	lookupHopsSig:mean 	4
scalar Network.dyn_peer[952] 	lookupTimeSig:mean 	1.6545454545455
scalar Network.dyn_peer[952] 	lookupStabilitySig:mean 	0.95519702574662
scalar Network.dyn_peer[952] 	lookupHopsSig:mean 	15.636363636364
scalar Network.dyn_peer[953] 	lookupTimeSig:mean 	1.75
scalar Network.dyn_peer[953] 	lookupStabilitySig:mean 	0.79298812150955
scalar Network.dyn_peer[953] 	lookupHopsSig:mean 	16.75
scalar Network.dyn_peer[954] 	lookupTimeSig:mean 	1.5
scalar Network.dyn_peer[954] 	lookupStabilitySig:mean 	0.73091547439496
scalar Network.dyn_peer[954] 	lookupHopsSig:mean 	14.333333333333
scalar Network.dyn_peer[955] 	lookupTimeSig:mean 	2.12
scalar Network.dyn_peer[955] 	lookupStabilitySig:mean 	0.8581341419369
scalar Network.dyn_peer[955] 	lookupHopsSig:mean 	20.4
scalar Network.dyn_peer[956] 	lookupTimeSig:mean 	1.9272727272727
scalar Network.dyn_peer[956] 	lookupStabilitySig:mean 	0.89011890149083
scalar Network.dyn_peer[956] 	lookupHopsSig:mean 	18.363636363636
scalar Network.dyn_peer[957] 	lookupTimeSig:mean 	1.7285714285714
scalar Network.dyn_peer[957] 	lookupStabilitySig:mean 	0.90099885321355
scalar Network.dyn_peer[957] 	lookupHopsSig:mean 	16.428571428571
scalar Network.dyn_peer[958] 	lookupTimeSig:mean 	1.48
scalar Network.dyn_peer[958] 	lookupStabilitySig:mean 	0.82168261893094
scalar Network.dyn_peer[958] 	lookupHopsSig:mean 	14
scalar Network.dyn_peer[959] 	lookupTimeSig:mean 	1
scalar Network.dyn_peer[959] 	lookupStabilitySig:mean 	0.61111110821366
scalar Network.dyn_peer[959] 	lookupHopsSig:mean 	9.3333333333333
scalar Network.dyn_peer[960] 	lookupTimeSig:mean 	2.1777777777778
scalar Network.dyn_peer[960] 	lookupStabilitySig:mean 	0.95710905082524
scalar Network.dyn_peer[960] 	lookupHopsSig:mean 	20.888888888889
scalar Network.dyn_peer[961] 	lookupTimeSig:mean 	1.5
scalar Network.dyn_peer[961] 	lookupStabilitySig:mean 	0.91558994924916
scalar Network.dyn_peer[961] 	lookupHopsSig:mean 	14.142857142857
scalar Network.dyn_peer[962] 	lookupTimeSig:mean 	2.07
scalar Network.dyn_peer[962] 	lookupStabilitySig:mean 	0.94768845923245
scalar Network.dyn_peer[962] 	lookupHopsSig:mean 	19.8
scalar Network.dyn_peer[963] 	lookupTimeSig:mean 	3.375
scalar Network.dyn_peer[963] 	lookupStabilitySig:mean 	0.90378675214015
scalar Network.dyn_peer[963] 	lookupHopsSig:mean 	33
scalar Network.dyn_peer[964] 	lookupTimeSig:mean 	2.3
scalar Network.dyn_peer[964] 	lookupStabilitySig:mean 	0.35766422748566
scalar Network.dyn_peer[964] 	lookupHopsSig:mean 	22.5
scalar Network.dyn_peer[965] 	lookupTimeSig:mean 	3.4285714285714
scalar Network.dyn_peer[965] 	lookupStabilitySig:mean 	0.95922119689307
scalar Network.dyn_peer[965] 	lookupHopsSig:mean 	33.428571428571
scalar Network.dyn_peer[966] 	lookupTimeSig:mean 	2.6
scalar Network.dyn_peer[966] 	lookupStabilitySig:mean 	0.64861951116472
scalar Network.dyn_peer[966] 	lookupHopsSig:mean 	25.25
scalar Network.dyn_peer[967] 	lookupTimeSig:mean 	2.3428571428571
scalar Network.dyn_peer[967] 	lookupStabilitySig:mean 	0.9584514436179
scalar Network.dyn_peer[967] 	lookupHopsSig:mean 	22.571428571429
scalar Network.dyn_peer[968] 	lookupTimeSig:mean 	1.9666666666667
scalar Network.dyn_peer[968] 	lookupStabilitySig:mean 	0.45670194923878
scalar Network.dyn_peer[968] 	lookupHopsSig:mean 	19
scalar Network.dyn_peer[969] 	lookupTimeSig:mean 	3.4666666666667
scalar Network.dyn_peer[969] 	lookupStabilitySig:mean 	0.54147942364216
scalar Network.dyn_peer[969] 	lookupHopsSig:mean 	34
scalar Network.dyn_peer[970] 	lookupTimeSig:mean 	1.525
scalar Network.dyn_peer[970] 	lookupStabilitySig:mean 	0.95286824759872
scalar Network.dyn_peer[970] 	lookupHopsSig:mean 	14.333333333333
scalar Network.dyn_peer[971] 	lookupTimeSig:mean 	1.88
scalar Network.dyn_peer[971] 	lookupStabilitySig:mean 	0.86549946442246
scalar Network.dyn_peer[971] 	lookupHopsSig:mean 	18
scalar Network.dyn_peer[972] 	lookupTimeSig:mean 	4
scalar Network.dyn_peer[972] 	lookupStabilitySig:mean 	0.81910786777735
scalar Network.dyn_peer[972] 	lookupHopsSig:mean 	39.5
scalar Network.dyn_peer[973] 	lookupTimeSig:mean 	1.6076923076923
scalar Network.dyn_peer[973] 	lookupStabilitySig:mean 	0.94671262431746
scalar Network.dyn_peer[973] 	lookupHopsSig:mean 	15.153846153846
scalar Network.dyn_peer[974] 	lookupTimeSig:mean 	2.2
scalar Network.dyn_peer[974] 	lookupStabilitySig:mean 	0.8614848149009
scalar Network.dyn_peer[974] 	lookupHopsSig:mean 	21.25
scalar Network.dyn_peer[975] 	lookupTimeSig:mean 	3.1
scalar Network.dyn_peer[975] 	lookupStabilitySig:mean 	0.48446501046419
scalar Network.dyn_peer[975] 	lookupHopsSig:mean 	30.5
scalar Network.dyn_peer[976] 	lookupTimeSig:mean 	3.0333333333333
scalar Network.dyn_peer[976] 	lookupStabilitySig:mean 	0.95129800215364
scalar Network.dyn_peer[976] 	lookupHopsSig:mean 	29.5
scalar Network.dyn_peer[977] 	lookupTimeSig:mean 	1.8555555555556
scalar Network.dyn_peer[977] 	lookupStabilitySig:mean 	0.91916649545439
scalar Network.dyn_peer[977] 	lookupHopsSig:mean 	17.666666666667
scalar Network.dyn_peer[978] 	lookupTimeSig:mean 	3.45
scalar Network.dyn_peer[978] 	lookupStabilitySig:mean 	0.39045936614275
scalar Network.dyn_peer[978] 	lookupHopsSig:mean 	34
scalar Network.dyn_peer[979] 	lookupTimeSig:mean 	2.2111111111111
scalar Network.dyn_peer[979] 	lookupStabilitySig:mean 	0.95347141847014
scalar Network.dyn_peer[979] 	lookupHopsSig:mean 	21.222222222222
scalar Network.dyn_peer[980] 	lookupTimeSig:mean 	1.65
scalar Network.dyn_peer[980] 	lookupStabilitySig:mean 	0.87630815291777
scalar Network.dyn_peer[980] 	lookupHopsSig:mean 	15.625
scalar Network.dyn_peer[981] 	lookupTimeSig:mean 	1.5
scalar Network.dyn_peer[981] 	lookupStabilitySig:mean 	0.87627683294704
scalar Network.dyn_peer[981] 	lookupHopsSig:mean 	14.125
scalar Network.dyn_peer[982] 	lookupTimeSig:mean 	1.22
scalar Network.dyn_peer[982] 	lookupStabilitySig:mean 	0.69657741934061
scalar Network.dyn_peer[982] 	lookupHopsSig:mean 	11.4
scalar Network.dyn_peer[983] 	lookupTimeSig:mean 	1.6363636363636
scalar Network.dyn_peer[983] 	lookupStabilitySig:mean 	0.93497132717378
scalar Network.dyn_peer[983] 	lookupHopsSig:mean 	15.454545454545
scalar Network.dyn_peer[984] 	lookupTimeSig:mean 	1.24
scalar Network.dyn_peer[984] 	lookupStabilitySig:mean 	0.93355352156796
scalar Network.dyn_peer[984] 	lookupHopsSig:mean 	11.5
scalar Network.dyn_peer[985] 	lookupTimeSig:mean 	1.4571428571429
scalar Network.dyn_peer[985] 	lookupStabilitySig:mean 	0.80466862914285
scalar Network.dyn_peer[985] 	lookupHopsSig:mean 	13.714285714286
scalar Network.dyn_peer[986] 	lookupTimeSig:mean 	4.7666666666667
scalar Network.dyn_peer[986] 	lookupStabilitySig:mean 	0.79867143929005
scalar Network.dyn_peer[986] 	lookupHopsSig:mean 	47
scalar Network.dyn_peer[987] 	lookupTimeSig:mean 	1.35
scalar Network.dyn_peer[987] 	lookupStabilitySig:mean 	0.87856100022327
scalar Network.dyn_peer[987] 	lookupHopsSig:mean 	12.625
scalar Network.dyn_peer[988] 	lookupTimeSig:mean 	1.3666666666667
scalar Network.dyn_peer[988] 	lookupStabilitySig:mean 	0.52342425783475
scalar Network.dyn_peer[988] 	lookupHopsSig:mean 	13
scalar Network.dyn_peer[989] 	lookupTimeSig:mean 	0.9875
scalar Network.dyn_peer[989] 	lookupStabilitySig:mean 	0.78329947218299
scalar Network.dyn_peer[989] 	lookupHopsSig:mean 	9
scalar Network.dyn_peer[990] 	lookupTimeSig:mean 	1.475
scalar Network.dyn_peer[990] 	lookupStabilitySig:mean 	0.91759689769242
scalar Network.dyn_peer[990] 	lookupHopsSig:mean 	13.875
scalar Network.dyn_peer[991] 	lookupTimeSig:mean 	2.2
scalar Network.dyn_peer[991] 	lookupStabilitySig:mean 	0.94046668009833
scalar Network.dyn_peer[991] 	lookupHopsSig:mean 	21.166666666667
scalar Network.dyn_peer[992] 	lookupTimeSig:mean 	2.675
scalar Network.dyn_peer[992] 	lookupStabilitySig:mean 	0.8589120907709
scalar Network.dyn_peer[992] 	lookupHopsSig:mean 	26
scalar Network.dyn_peer[993] 	lookupTimeSig:mean 	3.2
scalar Network.dyn_peer[993] 	lookupStabilitySig:mean 	0.96216961641663
scalar Network.dyn_peer[993] 	lookupHopsSig:mean 	31.142857142857
scalar Network.dyn_peer[994] 	lookupTimeSig:mean 	5.25
scalar Network.dyn_peer[994] 	lookupStabilitySig:mean 	0.72009506076574
scalar Network.dyn_peer[994] 	lookupHopsSig:mean 	52
scalar Network.dyn_peer[995] 	lookupTimeSig:mean 	1.1692307692308
scalar Network.dyn_peer[995] 	lookupStabilitySig:mean 	0.86412437732976
scalar Network.dyn_peer[995] 	lookupHopsSig:mean 	10.769230769231
scalar Network.dyn_peer[996] 	lookupTimeSig:mean 	2.5333333333333
scalar Network.dyn_peer[996] 	lookupStabilitySig:mean 	0.81452310085297
scalar Network.dyn_peer[996] 	lookupHopsSig:mean 	24.666666666667
scalar Network.dyn_peer[997] 	lookupTimeSig:mean 	2.84
scalar Network.dyn_peer[997] 	lookupStabilitySig:mean 	0.82478847317398
scalar Network.dyn_peer[997] 	lookupHopsSig:mean 	27.6
scalar Network.dyn_peer[998] 	lookupTimeSig:mean 	2.0307692307692
scalar Network.dyn_peer[998] 	lookupStabilitySig:mean 	0.96845258817148
scalar Network.dyn_peer[998] 	lookupHopsSig:mean 	19.384615384615
scalar Network.dyn_peer[999] 	lookupTimeSig:mean 	1.3666666666667
scalar Network.dyn_peer[999] 	lookupStabilitySig:mean 	0.41904759903749
scalar Network.dyn_peer[999] 	lookupHopsSig:mean 	13
scalar Network.churner 	inGoingSizeSig:mean 	499.000999001
