version 2
run Stability2-326-20130526-00:55:36-26640
attr configname Stability2
attr datetime 20130526-00:55:36
attr experiment Stability2
attr inifile omnetpp.ini
attr iterationvars $0=1000
attr iterationvars2 "$0=1000, $repetition=26"
attr measurement $0=1000
attr network Network
attr processid 26640
attr repetition 26
attr replication #26
attr resultdir results
attr runnumber 326
attr seedset 326

scalar Network.dyn_peer[0] 	lookupTimeSig:mean 	2.375
scalar Network.dyn_peer[0] 	lookupStabilitySig:mean 	0.75468331295997
scalar Network.dyn_peer[0] 	lookupHopsSig:mean 	23
scalar Network.dyn_peer[1] 	lookupTimeSig:mean 	1.7
scalar Network.dyn_peer[1] 	lookupStabilitySig:mean 	0.83424982810393
scalar Network.dyn_peer[1] 	lookupHopsSig:mean 	16.1
scalar Network.dyn_peer[2] 	lookupTimeSig:mean 	1.6
scalar Network.dyn_peer[2] 	lookupStabilitySig:mean 	0.67612500116229
scalar Network.dyn_peer[2] 	lookupHopsSig:mean 	15.125
scalar Network.dyn_peer[3] 	lookupTimeSig:mean 	1.5
scalar Network.dyn_peer[3] 	lookupStabilitySig:mean 	0.61604579687119
scalar Network.dyn_peer[3] 	lookupHopsSig:mean 	14.2
scalar Network.dyn_peer[4] 	lookupTimeSig:mean 	1.38
scalar Network.dyn_peer[4] 	lookupStabilitySig:mean 	0.47564853429794
scalar Network.dyn_peer[4] 	lookupHopsSig:mean 	13
scalar Network.dyn_peer[5] 	lookupTimeSig:mean 	1.8142857142857
scalar Network.dyn_peer[5] 	lookupStabilitySig:mean 	0.65523709356785
scalar Network.dyn_peer[5] 	lookupHopsSig:mean 	17.285714285714
scalar Network.dyn_peer[6] 	lookupTimeSig:mean 	1.825
scalar Network.dyn_peer[6] 	lookupStabilitySig:mean 	0.64335511438549
scalar Network.dyn_peer[6] 	lookupHopsSig:mean 	17.5
scalar Network.dyn_peer[7] 	lookupTimeSig:mean 	2.4
scalar Network.dyn_peer[7] 	lookupStabilitySig:mean 	0.62482936009765
scalar Network.dyn_peer[7] 	lookupHopsSig:mean 	23.2
scalar Network.dyn_peer[8] 	lookupTimeSig:mean 	2.45
scalar Network.dyn_peer[8] 	lookupStabilitySig:mean 	0.55551405763254
scalar Network.dyn_peer[8] 	lookupHopsSig:mean 	23.75
scalar Network.dyn_peer[9] 	lookupTimeSig:mean 	2
scalar Network.dyn_peer[9] 	lookupStabilitySig:mean 	0.34395832754672
scalar Network.dyn_peer[9] 	lookupHopsSig:mean 	19.25
scalar Network.dyn_peer[10] 	lookupTimeSig:mean 	2.275
scalar Network.dyn_peer[10] 	lookupStabilitySig:mean 	0.51143665425479
scalar Network.dyn_peer[10] 	lookupHopsSig:mean 	22
scalar Network.dyn_peer[11] 	lookupTimeSig:mean 	1.4888888888889
scalar Network.dyn_peer[11] 	lookupStabilitySig:mean 	0.77412930019717
scalar Network.dyn_peer[11] 	lookupHopsSig:mean 	14
scalar Network.dyn_peer[12] 	lookupTimeSig:mean 	1.8
scalar Network.dyn_peer[12] 	lookupStabilitySig:mean 	0.77145872451365
scalar Network.dyn_peer[12] 	lookupHopsSig:mean 	17.25
scalar Network.dyn_peer[13] 	lookupTimeSig:mean 	3.2
scalar Network.dyn_peer[13] 	lookupStabilitySig:mean 	-0.23541669547558
scalar Network.dyn_peer[13] 	lookupHopsSig:mean 	31.5
scalar Network.dyn_peer[14] 	lookupTimeSig:mean 	1.9
scalar Network.dyn_peer[14] 	lookupStabilitySig:mean 	0.83940237035443
scalar Network.dyn_peer[14] 	lookupHopsSig:mean 	18.142857142857
scalar Network.dyn_peer[15] 	lookupTimeSig:mean 	2.6666666666667
scalar Network.dyn_peer[15] 	lookupStabilitySig:mean 	0.50216736147801
scalar Network.dyn_peer[15] 	lookupHopsSig:mean 	26
scalar Network.dyn_peer[16] 	lookupTimeSig:mean 	1.2
scalar Network.dyn_peer[16] 	lookupStabilitySig:mean 	0.68124971068755
scalar Network.dyn_peer[16] 	lookupHopsSig:mean 	11.125
scalar Network.dyn_peer[17] 	lookupTimeSig:mean 	1.8
scalar Network.dyn_peer[17] 	lookupStabilitySig:mean 	0.85336724503969
scalar Network.dyn_peer[17] 	lookupHopsSig:mean 	17.076923076923
scalar Network.dyn_peer[18] 	lookupTimeSig:mean 	1.725
scalar Network.dyn_peer[18] 	lookupStabilitySig:mean 	0.15320326015353
scalar Network.dyn_peer[18] 	lookupHopsSig:mean 	16.5
scalar Network.dyn_peer[19] 	lookupTimeSig:mean 	3.6666666666667
scalar Network.dyn_peer[19] 	lookupStabilitySig:mean 	0.29696970929702
scalar Network.dyn_peer[19] 	lookupHopsSig:mean 	36
scalar Network.dyn_peer[20] 	lookupTimeSig:mean 	2.02
scalar Network.dyn_peer[20] 	lookupStabilitySig:mean 	0.80042945146561
scalar Network.dyn_peer[20] 	lookupHopsSig:mean 	19.4
scalar Network.dyn_peer[21] 	lookupTimeSig:mean 	4.7666666666667
scalar Network.dyn_peer[21] 	lookupStabilitySig:mean 	0.78118773425619
scalar Network.dyn_peer[21] 	lookupHopsSig:mean 	47
scalar Network.dyn_peer[22] 	lookupTimeSig:mean 	2.68
scalar Network.dyn_peer[22] 	lookupStabilitySig:mean 	0.51870635338128
scalar Network.dyn_peer[22] 	lookupHopsSig:mean 	26
scalar Network.dyn_peer[23] 	lookupTimeSig:mean 	3.5
scalar Network.dyn_peer[23] 	lookupStabilitySig:mean 	-0.22663757205009
scalar Network.dyn_peer[23] 	lookupHopsSig:mean 	34.5
scalar Network.dyn_peer[24] 	lookupTimeSig:mean 	3.4666666666667
scalar Network.dyn_peer[24] 	lookupStabilitySig:mean 	0.44005041321119
scalar Network.dyn_peer[24] 	lookupHopsSig:mean 	34
scalar Network.dyn_peer[25] 	lookupTimeSig:mean 	1.7222222222222
scalar Network.dyn_peer[25] 	lookupStabilitySig:mean 	0.77576871040381
scalar Network.dyn_peer[25] 	lookupHopsSig:mean 	16.333333333333
scalar Network.dyn_peer[26] 	lookupTimeSig:mean 	3.25
scalar Network.dyn_peer[26] 	lookupStabilitySig:mean 	-0.375
scalar Network.dyn_peer[26] 	lookupHopsSig:mean 	32
scalar Network.dyn_peer[27] 	lookupTimeSig:mean 	1.41
scalar Network.dyn_peer[27] 	lookupStabilitySig:mean 	0.90244110361673
scalar Network.dyn_peer[27] 	lookupHopsSig:mean 	13.2
scalar Network.dyn_peer[28] 	lookupTimeSig:mean 	2.7
scalar Network.dyn_peer[28] 	lookupStabilitySig:mean 	0.36961095221341
scalar Network.dyn_peer[28] 	lookupHopsSig:mean 	26.25
scalar Network.dyn_peer[29] 	lookupTimeSig:mean 	1.2875
scalar Network.dyn_peer[29] 	lookupStabilitySig:mean 	0.58684877492487
scalar Network.dyn_peer[29] 	lookupHopsSig:mean 	12
scalar Network.dyn_peer[30] 	lookupTimeSig:mean 	2.6666666666667
scalar Network.dyn_peer[30] 	lookupStabilitySig:mean 	0.79030721396622
scalar Network.dyn_peer[30] 	lookupHopsSig:mean 	25.777777777778
scalar Network.dyn_peer[31] 	lookupTimeSig:mean 	1.8333333333333
scalar Network.dyn_peer[31] 	lookupStabilitySig:mean 	0.59742210557063
scalar Network.dyn_peer[31] 	lookupHopsSig:mean 	17.666666666667
scalar Network.dyn_peer[32] 	lookupTimeSig:mean 	0.82
scalar Network.dyn_peer[32] 	lookupStabilitySig:mean 	0.58379371985793
scalar Network.dyn_peer[32] 	lookupHopsSig:mean 	7.4
scalar Network.dyn_peer[33] 	lookupTimeSig:mean 	1.7166666666667
scalar Network.dyn_peer[33] 	lookupStabilitySig:mean 	0.89558838711431
scalar Network.dyn_peer[33] 	lookupHopsSig:mean 	16.333333333333
scalar Network.dyn_peer[34] 	lookupTimeSig:mean 	2.725
scalar Network.dyn_peer[34] 	lookupStabilitySig:mean 	0.60451605543494
scalar Network.dyn_peer[34] 	lookupHopsSig:mean 	26.5
scalar Network.dyn_peer[35] 	lookupTimeSig:mean 	1.6
scalar Network.dyn_peer[35] 	lookupStabilitySig:mean 	0.73694999609143
scalar Network.dyn_peer[35] 	lookupHopsSig:mean 	15.2
scalar Network.dyn_peer[36] 	lookupTimeSig:mean 	1.3285714285714
scalar Network.dyn_peer[36] 	lookupStabilitySig:mean 	0.67651508003473
scalar Network.dyn_peer[36] 	lookupHopsSig:mean 	12.428571428571
scalar Network.dyn_peer[37] 	lookupTimeSig:mean 	0.9375
scalar Network.dyn_peer[37] 	lookupStabilitySig:mean 	0.54944142140448
scalar Network.dyn_peer[37] 	lookupHopsSig:mean 	8.5
scalar Network.dyn_peer[38] 	lookupTimeSig:mean 	2
scalar Network.dyn_peer[38] 	lookupStabilitySig:mean 	0.50046252533793
scalar Network.dyn_peer[38] 	lookupHopsSig:mean 	19.2
scalar Network.dyn_peer[39] 	lookupTimeSig:mean 	1.7125
scalar Network.dyn_peer[39] 	lookupStabilitySig:mean 	0.54924318334088
scalar Network.dyn_peer[39] 	lookupHopsSig:mean 	16.25
scalar Network.dyn_peer[40] 	lookupTimeSig:mean 	2.1666666666667
scalar Network.dyn_peer[40] 	lookupStabilitySig:mean 	0.93537674813221
scalar Network.dyn_peer[40] 	lookupHopsSig:mean 	20.777777777778
scalar Network.dyn_peer[41] 	lookupTimeSig:mean 	2.75
scalar Network.dyn_peer[41] 	lookupStabilitySig:mean 	0.60505730472505
scalar Network.dyn_peer[41] 	lookupHopsSig:mean 	26.75
scalar Network.dyn_peer[42] 	lookupTimeSig:mean 	0.83333333333333
scalar Network.dyn_peer[42] 	lookupStabilitySig:mean 	0.45657089911401
scalar Network.dyn_peer[42] 	lookupHopsSig:mean 	7.5
scalar Network.dyn_peer[43] 	lookupTimeSig:mean 	1.4833333333333
scalar Network.dyn_peer[43] 	lookupStabilitySig:mean 	0.61226328896979
scalar Network.dyn_peer[43] 	lookupHopsSig:mean 	14
scalar Network.dyn_peer[44] 	lookupTimeSig:mean 	1.6333333333333
scalar Network.dyn_peer[44] 	lookupStabilitySig:mean 	0.80998413947721
scalar Network.dyn_peer[44] 	lookupHopsSig:mean 	15.5
scalar Network.dyn_peer[45] 	lookupTimeSig:mean 	1.7333333333333
scalar Network.dyn_peer[45] 	lookupStabilitySig:mean 	0.4861853569746
scalar Network.dyn_peer[45] 	lookupHopsSig:mean 	16.666666666667
scalar Network.dyn_peer[46] 	lookupTimeSig:mean 	1.76
scalar Network.dyn_peer[46] 	lookupStabilitySig:mean 	0.57058006078005
scalar Network.dyn_peer[46] 	lookupHopsSig:mean 	16.8
scalar Network.dyn_peer[47] 	lookupTimeSig:mean 	1.4727272727273
scalar Network.dyn_peer[47] 	lookupStabilitySig:mean 	0.69290892906826
scalar Network.dyn_peer[47] 	lookupHopsSig:mean 	13.818181818182
scalar Network.dyn_peer[48] 	lookupTimeSig:mean 	1.8
scalar Network.dyn_peer[48] 	lookupStabilitySig:mean 	0.20196079214414
scalar Network.dyn_peer[48] 	lookupHopsSig:mean 	17.333333333333
scalar Network.dyn_peer[49] 	lookupTimeSig:mean 	1.6333333333333
scalar Network.dyn_peer[49] 	lookupStabilitySig:mean 	-0.078168362379074
scalar Network.dyn_peer[49] 	lookupHopsSig:mean 	15.666666666667
scalar Network.dyn_peer[50] 	lookupTimeSig:mean 	1.4
scalar Network.dyn_peer[50] 	lookupStabilitySig:mean 	0.57847891957499
scalar Network.dyn_peer[50] 	lookupHopsSig:mean 	13.125
scalar Network.dyn_peer[51] 	lookupTimeSig:mean 	2.2666666666667
scalar Network.dyn_peer[51] 	lookupStabilitySig:mean 	0.36823053658009
scalar Network.dyn_peer[51] 	lookupHopsSig:mean 	22
scalar Network.dyn_peer[52] 	lookupTimeSig:mean 	4.55
scalar Network.dyn_peer[52] 	lookupStabilitySig:mean 	-0.39746830612421
scalar Network.dyn_peer[52] 	lookupHopsSig:mean 	45
scalar Network.dyn_peer[53] 	lookupTimeSig:mean 	2.55
scalar Network.dyn_peer[53] 	lookupStabilitySig:mean 	0.91847946308553
scalar Network.dyn_peer[53] 	lookupHopsSig:mean 	24.666666666667
scalar Network.dyn_peer[54] 	lookupTimeSig:mean 	1.9333333333333
scalar Network.dyn_peer[54] 	lookupStabilitySig:mean 	0.91491030730928
scalar Network.dyn_peer[54] 	lookupHopsSig:mean 	18.5
scalar Network.dyn_peer[55] 	lookupTimeSig:mean 	2.15
scalar Network.dyn_peer[55] 	lookupStabilitySig:mean 	0.7382419668138
scalar Network.dyn_peer[55] 	lookupHopsSig:mean 	20.75
scalar Network.dyn_peer[56] 	lookupTimeSig:mean 	1.6307692307692
scalar Network.dyn_peer[56] 	lookupStabilitySig:mean 	0.94356298367851
scalar Network.dyn_peer[56] 	lookupHopsSig:mean 	15.384615384615
scalar Network.dyn_peer[57] 	lookupTimeSig:mean 	1.9875
scalar Network.dyn_peer[57] 	lookupStabilitySig:mean 	0.79589625133667
scalar Network.dyn_peer[57] 	lookupHopsSig:mean 	19
scalar Network.dyn_peer[58] 	lookupTimeSig:mean 	1.625
scalar Network.dyn_peer[58] 	lookupStabilitySig:mean 	0.64511627331376
scalar Network.dyn_peer[58] 	lookupHopsSig:mean 	15.5
scalar Network.dyn_peer[59] 	lookupTimeSig:mean 	1.675
scalar Network.dyn_peer[59] 	lookupStabilitySig:mean 	0.11024443618953
scalar Network.dyn_peer[59] 	lookupHopsSig:mean 	16
scalar Network.dyn_peer[60] 	lookupTimeSig:mean 	1.18
scalar Network.dyn_peer[60] 	lookupStabilitySig:mean 	0.46678386479616
scalar Network.dyn_peer[60] 	lookupHopsSig:mean 	11
scalar Network.dyn_peer[61] 	lookupTimeSig:mean 	1.42
scalar Network.dyn_peer[61] 	lookupStabilitySig:mean 	0.47849795222282
scalar Network.dyn_peer[61] 	lookupHopsSig:mean 	13.4
scalar Network.dyn_peer[62] 	lookupTimeSig:mean 	2.75
scalar Network.dyn_peer[62] 	lookupStabilitySig:mean 	0.33342763036489
scalar Network.dyn_peer[62] 	lookupHopsSig:mean 	26.75
scalar Network.dyn_peer[63] 	lookupTimeSig:mean 	1.9
scalar Network.dyn_peer[63] 	lookupStabilitySig:mean 	0.73229920677841
scalar Network.dyn_peer[63] 	lookupHopsSig:mean 	18.25
scalar Network.dyn_peer[64] 	lookupTimeSig:mean 	2.9666666666667
scalar Network.dyn_peer[64] 	lookupStabilitySig:mean 	0.38892587771018
scalar Network.dyn_peer[64] 	lookupHopsSig:mean 	29
scalar Network.dyn_peer[65] 	lookupTimeSig:mean 	2.0285714285714
scalar Network.dyn_peer[65] 	lookupStabilitySig:mean 	0.70787352922239
scalar Network.dyn_peer[65] 	lookupHopsSig:mean 	19.428571428571
scalar Network.dyn_peer[66] 	lookupTimeSig:mean 	1.6571428571429
scalar Network.dyn_peer[66] 	lookupStabilitySig:mean 	0.93381908103558
scalar Network.dyn_peer[66] 	lookupHopsSig:mean 	15.714285714286
scalar Network.dyn_peer[67] 	lookupTimeSig:mean 	1.92
scalar Network.dyn_peer[67] 	lookupStabilitySig:mean 	0.47500776909292
scalar Network.dyn_peer[67] 	lookupHopsSig:mean 	18.4
scalar Network.dyn_peer[68] 	lookupTimeSig:mean 	1.7333333333333
scalar Network.dyn_peer[68] 	lookupStabilitySig:mean 	0.63180546307315
scalar Network.dyn_peer[68] 	lookupHopsSig:mean 	16.5
scalar Network.dyn_peer[69] 	lookupTimeSig:mean 	1
scalar Network.dyn_peer[69] 	lookupStabilitySig:mean 	0.14615385234356
scalar Network.dyn_peer[69] 	lookupHopsSig:mean 	9.5
scalar Network.dyn_peer[70] 	lookupTimeSig:mean 	1.2
scalar Network.dyn_peer[70] 	lookupStabilitySig:mean 	0.51437720656395
scalar Network.dyn_peer[70] 	lookupHopsSig:mean 	11.333333333333
scalar Network.dyn_peer[71] 	lookupTimeSig:mean 	2.94
scalar Network.dyn_peer[71] 	lookupStabilitySig:mean 	0.66551758572459
scalar Network.dyn_peer[71] 	lookupHopsSig:mean 	28.6
scalar Network.dyn_peer[72] 	lookupTimeSig:mean 	1.35
scalar Network.dyn_peer[72] 	lookupStabilitySig:mean 	0.75249303566913
scalar Network.dyn_peer[72] 	lookupHopsSig:mean 	12.666666666667
scalar Network.dyn_peer[73] 	lookupTimeSig:mean 	2.16
scalar Network.dyn_peer[73] 	lookupStabilitySig:mean 	0.31766139417887
scalar Network.dyn_peer[73] 	lookupHopsSig:mean 	20.8
scalar Network.dyn_peer[74] 	lookupTimeSig:mean 	2.42
scalar Network.dyn_peer[74] 	lookupStabilitySig:mean 	0.33583566974849
scalar Network.dyn_peer[74] 	lookupHopsSig:mean 	23.4
scalar Network.dyn_peer[75] 	lookupTimeSig:mean 	1.3714285714286
scalar Network.dyn_peer[75] 	lookupStabilitySig:mean 	0.61380876813616
scalar Network.dyn_peer[75] 	lookupHopsSig:mean 	12.857142857143
scalar Network.dyn_peer[76] 	lookupTimeSig:mean 	2
scalar Network.dyn_peer[76] 	lookupStabilitySig:mean 	0.57966921851039
scalar Network.dyn_peer[76] 	lookupHopsSig:mean 	19.166666666667
scalar Network.dyn_peer[77] 	lookupTimeSig:mean 	1.65
scalar Network.dyn_peer[77] 	lookupStabilitySig:mean 	0.088235288858414
scalar Network.dyn_peer[77] 	lookupHopsSig:mean 	16
scalar Network.dyn_peer[78] 	lookupTimeSig:mean 	1.9333333333333
scalar Network.dyn_peer[78] 	lookupStabilitySig:mean 	0.39102840423584
scalar Network.dyn_peer[78] 	lookupHopsSig:mean 	18.666666666667
scalar Network.dyn_peer[79] 	lookupTimeSig:mean 	0.725
scalar Network.dyn_peer[79] 	lookupStabilitySig:mean 	0.44166666641831
scalar Network.dyn_peer[79] 	lookupHopsSig:mean 	6.5
scalar Network.dyn_peer[80] 	lookupTimeSig:mean 	2
scalar Network.dyn_peer[80] 	lookupStabilitySig:mean 	0.84829356300179
scalar Network.dyn_peer[80] 	lookupHopsSig:mean 	19.125
scalar Network.dyn_peer[81] 	lookupTimeSig:mean 	1.4875
scalar Network.dyn_peer[81] 	lookupStabilitySig:mean 	0.65696543164086
scalar Network.dyn_peer[81] 	lookupHopsSig:mean 	14
scalar Network.dyn_peer[82] 	lookupTimeSig:mean 	1.4666666666667
scalar Network.dyn_peer[82] 	lookupStabilitySig:mean 	0.70730126804362
scalar Network.dyn_peer[82] 	lookupHopsSig:mean 	13.833333333333
scalar Network.dyn_peer[83] 	lookupTimeSig:mean 	1.86
scalar Network.dyn_peer[83] 	lookupStabilitySig:mean 	0.44881485775113
scalar Network.dyn_peer[83] 	lookupHopsSig:mean 	17.8
scalar Network.dyn_peer[84] 	lookupTimeSig:mean 	1.4818181818182
scalar Network.dyn_peer[84] 	lookupStabilitySig:mean 	0.92880201369355
scalar Network.dyn_peer[84] 	lookupHopsSig:mean 	13.909090909091
scalar Network.dyn_peer[85] 	lookupTimeSig:mean 	3.2
scalar Network.dyn_peer[85] 	lookupStabilitySig:mean 	0.61769758537412
scalar Network.dyn_peer[85] 	lookupHopsSig:mean 	31.5
scalar Network.dyn_peer[86] 	lookupTimeSig:mean 	1.0375
scalar Network.dyn_peer[86] 	lookupStabilitySig:mean 	0.63264025817625
scalar Network.dyn_peer[86] 	lookupHopsSig:mean 	9.5
scalar Network.dyn_peer[87] 	lookupTimeSig:mean 	4.35
scalar Network.dyn_peer[87] 	lookupStabilitySig:mean 	0.16144414246082
scalar Network.dyn_peer[87] 	lookupHopsSig:mean 	43
scalar Network.dyn_peer[88] 	lookupTimeSig:mean 	1.3111111111111
scalar Network.dyn_peer[88] 	lookupStabilitySig:mean 	0.64635039007084
scalar Network.dyn_peer[88] 	lookupHopsSig:mean 	12.222222222222
scalar Network.dyn_peer[89] 	lookupTimeSig:mean 	2.7666666666667
scalar Network.dyn_peer[89] 	lookupStabilitySig:mean 	0.69639469434818
scalar Network.dyn_peer[89] 	lookupHopsSig:mean 	27
scalar Network.dyn_peer[90] 	lookupTimeSig:mean 	1.6
scalar Network.dyn_peer[90] 	lookupStabilitySig:mean 	0.10775306572517
scalar Network.dyn_peer[90] 	lookupHopsSig:mean 	15.333333333333
scalar Network.dyn_peer[91] 	lookupTimeSig:mean 	2.3
scalar Network.dyn_peer[91] 	lookupStabilitySig:mean 	0.86357165888573
scalar Network.dyn_peer[91] 	lookupHopsSig:mean 	22.166666666667
scalar Network.dyn_peer[92] 	lookupTimeSig:mean 	1.6875
scalar Network.dyn_peer[92] 	lookupStabilitySig:mean 	0.610176370712
scalar Network.dyn_peer[92] 	lookupHopsSig:mean 	16
scalar Network.dyn_peer[93] 	lookupTimeSig:mean 	1.1666666666667
scalar Network.dyn_peer[93] 	lookupStabilitySig:mean 	0.59029245811204
scalar Network.dyn_peer[93] 	lookupHopsSig:mean 	10.833333333333
scalar Network.dyn_peer[94] 	lookupTimeSig:mean 	1.5307692307692
scalar Network.dyn_peer[94] 	lookupStabilitySig:mean 	0.95998979807616
scalar Network.dyn_peer[94] 	lookupHopsSig:mean 	14.384615384615
scalar Network.dyn_peer[95] 	lookupTimeSig:mean 	2.4
scalar Network.dyn_peer[95] 	lookupStabilitySig:mean 	0.53953830897808
scalar Network.dyn_peer[95] 	lookupHopsSig:mean 	23.333333333333
scalar Network.dyn_peer[96] 	lookupTimeSig:mean 	4.5333333333333
scalar Network.dyn_peer[96] 	lookupStabilitySig:mean 	0.59607503563166
scalar Network.dyn_peer[96] 	lookupHopsSig:mean 	44.666666666667
scalar Network.dyn_peer[97] 	lookupTimeSig:mean 	1.7363636363636
scalar Network.dyn_peer[97] 	lookupStabilitySig:mean 	0.94535608111288
scalar Network.dyn_peer[97] 	lookupHopsSig:mean 	16.454545454545
scalar Network.dyn_peer[98] 	lookupTimeSig:mean 	0.85
scalar Network.dyn_peer[98] 	lookupStabilitySig:mean 	-0.33333334326744
scalar Network.dyn_peer[98] 	lookupHopsSig:mean 	8
scalar Network.dyn_peer[99] 	lookupTimeSig:mean 	2.375
scalar Network.dyn_peer[99] 	lookupStabilitySig:mean 	0.63739413861185
scalar Network.dyn_peer[99] 	lookupHopsSig:mean 	23
scalar Network.dyn_peer[100] 	lookupTimeSig:mean 	1.7333333333333
scalar Network.dyn_peer[100] 	lookupStabilitySig:mean 	0.92561180020372
scalar Network.dyn_peer[100] 	lookupHopsSig:mean 	16.444444444444
scalar Network.dyn_peer[101] 	lookupTimeSig:mean 	2.2333333333333
scalar Network.dyn_peer[101] 	lookupStabilitySig:mean 	0.92815009442468
scalar Network.dyn_peer[101] 	lookupHopsSig:mean 	21.444444444444
scalar Network.dyn_peer[102] 	lookupTimeSig:mean 	3.175
scalar Network.dyn_peer[102] 	lookupStabilitySig:mean 	0.71472743712366
scalar Network.dyn_peer[102] 	lookupHopsSig:mean 	31
scalar Network.dyn_peer[103] 	lookupTimeSig:mean 	1.1
scalar Network.dyn_peer[103] 	lookupStabilitySig:mean 	0.38409903049469
scalar Network.dyn_peer[103] 	lookupHopsSig:mean 	10.2
scalar Network.dyn_peer[104] 	lookupTimeSig:mean 	1.8916666666667
scalar Network.dyn_peer[104] 	lookupStabilitySig:mean 	0.89235268711733
scalar Network.dyn_peer[104] 	lookupHopsSig:mean 	18
scalar Network.dyn_peer[105] 	lookupTimeSig:mean 	2.22
scalar Network.dyn_peer[105] 	lookupStabilitySig:mean 	0.77330631166697
scalar Network.dyn_peer[105] 	lookupHopsSig:mean 	21.4
scalar Network.dyn_peer[106] 	lookupTimeSig:mean 	1.6833333333333
scalar Network.dyn_peer[106] 	lookupStabilitySig:mean 	0.60737611027434
scalar Network.dyn_peer[106] 	lookupHopsSig:mean 	16
scalar Network.dyn_peer[107] 	lookupTimeSig:mean 	1.5666666666667
scalar Network.dyn_peer[107] 	lookupStabilitySig:mean 	0.48852199440201
scalar Network.dyn_peer[107] 	lookupHopsSig:mean 	14.833333333333
scalar Network.dyn_peer[108] 	lookupTimeSig:mean 	1.525
scalar Network.dyn_peer[108] 	lookupStabilitySig:mean 	0.42395833879709
scalar Network.dyn_peer[108] 	lookupHopsSig:mean 	14.5
scalar Network.dyn_peer[109] 	lookupTimeSig:mean 	1.36
scalar Network.dyn_peer[109] 	lookupStabilitySig:mean 	0.75994852408767
scalar Network.dyn_peer[109] 	lookupHopsSig:mean 	12.8
scalar Network.dyn_peer[110] 	lookupTimeSig:mean 	1.5714285714286
scalar Network.dyn_peer[110] 	lookupStabilitySig:mean 	0.69431500629123
scalar Network.dyn_peer[110] 	lookupHopsSig:mean 	14.857142857143
scalar Network.dyn_peer[111] 	lookupTimeSig:mean 	1.975
scalar Network.dyn_peer[111] 	lookupStabilitySig:mean 	0.77612085849978
scalar Network.dyn_peer[111] 	lookupHopsSig:mean 	18.875
scalar Network.dyn_peer[112] 	lookupTimeSig:mean 	2.075
scalar Network.dyn_peer[112] 	lookupStabilitySig:mean 	0.63080748915672
scalar Network.dyn_peer[112] 	lookupHopsSig:mean 	20
scalar Network.dyn_peer[113] 	lookupTimeSig:mean 	1.4375
scalar Network.dyn_peer[113] 	lookupStabilitySig:mean 	0.79468577518128
scalar Network.dyn_peer[113] 	lookupHopsSig:mean 	13.5
scalar Network.dyn_peer[114] 	lookupTimeSig:mean 	1.475
scalar Network.dyn_peer[114] 	lookupStabilitySig:mean 	0.58624725416303
scalar Network.dyn_peer[114] 	lookupHopsSig:mean 	14
scalar Network.dyn_peer[115] 	lookupTimeSig:mean 	2.0333333333333
scalar Network.dyn_peer[115] 	lookupStabilitySig:mean 	0.44309763113658
scalar Network.dyn_peer[115] 	lookupHopsSig:mean 	19.666666666667
scalar Network.dyn_peer[116] 	lookupTimeSig:mean 	1.2
scalar Network.dyn_peer[116] 	lookupStabilitySig:mean 	0.34286411479115
scalar Network.dyn_peer[116] 	lookupHopsSig:mean 	11.25
scalar Network.dyn_peer[117] 	lookupTimeSig:mean 	2.425
scalar Network.dyn_peer[117] 	lookupStabilitySig:mean 	0.58793996903114
scalar Network.dyn_peer[117] 	lookupHopsSig:mean 	23.5
scalar Network.dyn_peer[118] 	lookupTimeSig:mean 	3.125
scalar Network.dyn_peer[118] 	lookupStabilitySig:mean 	0.65766639541835
scalar Network.dyn_peer[118] 	lookupHopsSig:mean 	30.5
scalar Network.dyn_peer[119] 	lookupTimeSig:mean 	1.6
scalar Network.dyn_peer[119] 	lookupStabilitySig:mean 	0.64250922096627
scalar Network.dyn_peer[119] 	lookupHopsSig:mean 	15.142857142857
scalar Network.dyn_peer[120] 	lookupTimeSig:mean 	1.6
scalar Network.dyn_peer[120] 	lookupStabilitySig:mean 	0.80757115315646
scalar Network.dyn_peer[120] 	lookupHopsSig:mean 	15.166666666667
scalar Network.dyn_peer[121] 	lookupTimeSig:mean 	1.55
scalar Network.dyn_peer[121] 	lookupStabilitySig:mean 	0.25534757971764
scalar Network.dyn_peer[121] 	lookupHopsSig:mean 	14.75
scalar Network.dyn_peer[122] 	lookupTimeSig:mean 	1.9666666666667
scalar Network.dyn_peer[122] 	lookupStabilitySig:mean 	0.076216464241346
scalar Network.dyn_peer[122] 	lookupHopsSig:mean 	19
scalar Network.dyn_peer[123] 	lookupTimeSig:mean 	2.725
scalar Network.dyn_peer[123] 	lookupStabilitySig:mean 	0.72695355769247
scalar Network.dyn_peer[123] 	lookupHopsSig:mean 	26.5
scalar Network.dyn_peer[124] 	lookupTimeSig:mean 	1.7428571428571
scalar Network.dyn_peer[124] 	lookupStabilitySig:mean 	0.87064511595028
scalar Network.dyn_peer[124] 	lookupHopsSig:mean 	16.571428571429
scalar Network.dyn_peer[125] 	lookupTimeSig:mean 	1.9272727272727
scalar Network.dyn_peer[125] 	lookupStabilitySig:mean 	0.79391564449973
scalar Network.dyn_peer[125] 	lookupHopsSig:mean 	18.363636363636
scalar Network.dyn_peer[126] 	lookupTimeSig:mean 	1.9333333333333
scalar Network.dyn_peer[126] 	lookupStabilitySig:mean 	0.7584946717446
scalar Network.dyn_peer[126] 	lookupHopsSig:mean 	18.5
scalar Network.dyn_peer[127] 	lookupTimeSig:mean 	1.9111111111111
scalar Network.dyn_peer[127] 	lookupStabilitySig:mean 	0.77985196643405
scalar Network.dyn_peer[127] 	lookupHopsSig:mean 	18.222222222222
scalar Network.dyn_peer[128] 	lookupTimeSig:mean 	2.0666666666667
scalar Network.dyn_peer[128] 	lookupStabilitySig:mean 	0.80861070627968
scalar Network.dyn_peer[128] 	lookupHopsSig:mean 	19.833333333333
scalar Network.dyn_peer[129] 	lookupTimeSig:mean 	1.6833333333333
scalar Network.dyn_peer[129] 	lookupStabilitySig:mean 	0.67674560759527
scalar Network.dyn_peer[129] 	lookupHopsSig:mean 	16
scalar Network.dyn_peer[130] 	lookupTimeSig:mean 	3.7
scalar Network.dyn_peer[130] 	lookupStabilitySig:mean 	0.2778966302673
scalar Network.dyn_peer[130] 	lookupHopsSig:mean 	36.333333333333
scalar Network.dyn_peer[131] 	lookupTimeSig:mean 	2.2444444444444
scalar Network.dyn_peer[131] 	lookupStabilitySig:mean 	0.91794767882675
scalar Network.dyn_peer[131] 	lookupHopsSig:mean 	21.555555555556
scalar Network.dyn_peer[132] 	lookupTimeSig:mean 	2.1333333333333
scalar Network.dyn_peer[132] 	lookupStabilitySig:mean 	0.50041499237219
scalar Network.dyn_peer[132] 	lookupHopsSig:mean 	20.666666666667
scalar Network.dyn_peer[133] 	lookupTimeSig:mean 	3.14
scalar Network.dyn_peer[133] 	lookupStabilitySig:mean 	0.60823117671534
scalar Network.dyn_peer[133] 	lookupHopsSig:mean 	30.6
scalar Network.dyn_peer[134] 	lookupTimeSig:mean 	1.925
scalar Network.dyn_peer[134] 	lookupStabilitySig:mean 	0.70260938629508
scalar Network.dyn_peer[134] 	lookupHopsSig:mean 	18.5
scalar Network.dyn_peer[135] 	lookupTimeSig:mean 	1.9222222222222
scalar Network.dyn_peer[135] 	lookupStabilitySig:mean 	0.7648859952266
scalar Network.dyn_peer[135] 	lookupHopsSig:mean 	18.333333333333
scalar Network.dyn_peer[136] 	lookupTimeSig:mean 	1.175
scalar Network.dyn_peer[136] 	lookupStabilitySig:mean 	0.46296649612486
scalar Network.dyn_peer[136] 	lookupHopsSig:mean 	11
scalar Network.dyn_peer[137] 	lookupTimeSig:mean 	2.525
scalar Network.dyn_peer[137] 	lookupStabilitySig:mean 	0.54137284494936
scalar Network.dyn_peer[137] 	lookupHopsSig:mean 	24.5
scalar Network.dyn_peer[138] 	lookupTimeSig:mean 	2.4285714285714
scalar Network.dyn_peer[138] 	lookupStabilitySig:mean 	0.76134816863175
scalar Network.dyn_peer[138] 	lookupHopsSig:mean 	23.428571428571
scalar Network.dyn_peer[139] 	lookupTimeSig:mean 	1.9
scalar Network.dyn_peer[139] 	lookupStabilitySig:mean 	0.73029644936323
scalar Network.dyn_peer[139] 	lookupHopsSig:mean 	18.2
scalar Network.dyn_peer[140] 	lookupTimeSig:mean 	3.25
scalar Network.dyn_peer[140] 	lookupStabilitySig:mean 	0.42900609225035
scalar Network.dyn_peer[140] 	lookupHopsSig:mean 	32
scalar Network.dyn_peer[141] 	lookupTimeSig:mean 	1.0285714285714
scalar Network.dyn_peer[141] 	lookupStabilitySig:mean 	0.6109077267881
scalar Network.dyn_peer[141] 	lookupHopsSig:mean 	9.4285714285714
scalar Network.dyn_peer[142] 	lookupTimeSig:mean 	1.125
scalar Network.dyn_peer[142] 	lookupStabilitySig:mean 	0.23045635595918
scalar Network.dyn_peer[142] 	lookupHopsSig:mean 	10.5
scalar Network.dyn_peer[143] 	lookupTimeSig:mean 	2.55
scalar Network.dyn_peer[143] 	lookupStabilitySig:mean 	0.76781856827438
scalar Network.dyn_peer[143] 	lookupHopsSig:mean 	24.75
scalar Network.dyn_peer[144] 	lookupTimeSig:mean 	2.1
scalar Network.dyn_peer[144] 	lookupStabilitySig:mean 	0.27840235456824
scalar Network.dyn_peer[144] 	lookupHopsSig:mean 	20.25
scalar Network.dyn_peer[145] 	lookupTimeSig:mean 	2.625
scalar Network.dyn_peer[145] 	lookupStabilitySig:mean 	0.48770729545504
scalar Network.dyn_peer[145] 	lookupHopsSig:mean 	25.5
scalar Network.dyn_peer[146] 	lookupTimeSig:mean 	1.42
scalar Network.dyn_peer[146] 	lookupStabilitySig:mean 	0.67752496637404
scalar Network.dyn_peer[146] 	lookupHopsSig:mean 	13.3
scalar Network.dyn_peer[147] 	lookupTimeSig:mean 	1.625
scalar Network.dyn_peer[147] 	lookupStabilitySig:mean 	0.3426497913897
scalar Network.dyn_peer[147] 	lookupHopsSig:mean 	15.5
scalar Network.dyn_peer[148] 	lookupTimeSig:mean 	1.6333333333333
scalar Network.dyn_peer[148] 	lookupStabilitySig:mean 	0.55666666229566
scalar Network.dyn_peer[148] 	lookupHopsSig:mean 	15.666666666667
scalar Network.dyn_peer[149] 	lookupTimeSig:mean 	1.2
scalar Network.dyn_peer[149] 	lookupStabilitySig:mean 	0.10307015478611
scalar Network.dyn_peer[149] 	lookupHopsSig:mean 	11.5
scalar Network.dyn_peer[150] 	lookupTimeSig:mean 	1.48
scalar Network.dyn_peer[150] 	lookupStabilitySig:mean 	0.52998849675059
scalar Network.dyn_peer[150] 	lookupHopsSig:mean 	14
scalar Network.dyn_peer[151] 	lookupTimeSig:mean 	1.16
scalar Network.dyn_peer[151] 	lookupStabilitySig:mean 	0.67469204152003
scalar Network.dyn_peer[151] 	lookupHopsSig:mean 	10.7
scalar Network.dyn_peer[152] 	lookupTimeSig:mean 	2.025
scalar Network.dyn_peer[152] 	lookupStabilitySig:mean 	0.51426134444773
scalar Network.dyn_peer[152] 	lookupHopsSig:mean 	19.5
scalar Network.dyn_peer[153] 	lookupTimeSig:mean 	1.5666666666667
scalar Network.dyn_peer[153] 	lookupStabilitySig:mean 	0.32614378631115
scalar Network.dyn_peer[153] 	lookupHopsSig:mean 	15
scalar Network.dyn_peer[154] 	lookupTimeSig:mean 	1.3277777777778
scalar Network.dyn_peer[154] 	lookupStabilitySig:mean 	0.83439901220198
scalar Network.dyn_peer[154] 	lookupHopsSig:mean 	12.333333333333
scalar Network.dyn_peer[155] 	lookupTimeSig:mean 	1.1
scalar Network.dyn_peer[155] 	lookupStabilitySig:mean 	0.64397486982246
scalar Network.dyn_peer[155] 	lookupHopsSig:mean 	10.166666666667
scalar Network.dyn_peer[156] 	lookupTimeSig:mean 	1.5230769230769
scalar Network.dyn_peer[156] 	lookupStabilitySig:mean 	0.81452243721399
scalar Network.dyn_peer[156] 	lookupHopsSig:mean 	14.307692307692
scalar Network.dyn_peer[157] 	lookupTimeSig:mean 	1.725
scalar Network.dyn_peer[157] 	lookupStabilitySig:mean 	0.35187403857708
scalar Network.dyn_peer[157] 	lookupHopsSig:mean 	16.5
scalar Network.dyn_peer[158] 	lookupTimeSig:mean 	3
scalar Network.dyn_peer[158] 	lookupStabilitySig:mean 	0.72840236872435
scalar Network.dyn_peer[158] 	lookupHopsSig:mean 	29.5
scalar Network.dyn_peer[159] 	lookupTimeSig:mean 	1.38
scalar Network.dyn_peer[159] 	lookupStabilitySig:mean 	0.63947900012136
scalar Network.dyn_peer[159] 	lookupHopsSig:mean 	13
scalar Network.dyn_peer[160] 	lookupTimeSig:mean 	1.8142857142857
scalar Network.dyn_peer[160] 	lookupStabilitySig:mean 	0.91096757059651
scalar Network.dyn_peer[160] 	lookupHopsSig:mean 	17.285714285714
scalar Network.dyn_peer[161] 	lookupTimeSig:mean 	1.4285714285714
scalar Network.dyn_peer[161] 	lookupStabilitySig:mean 	0.51469753775746
scalar Network.dyn_peer[161] 	lookupHopsSig:mean 	13.428571428571
scalar Network.dyn_peer[162] 	lookupTimeSig:mean 	1.2666666666667
scalar Network.dyn_peer[162] 	lookupStabilitySig:mean 	0.76085217809305
scalar Network.dyn_peer[162] 	lookupHopsSig:mean 	11.833333333333
scalar Network.dyn_peer[163] 	lookupTimeSig:mean 	1.375
scalar Network.dyn_peer[163] 	lookupStabilitySig:mean 	0.88304271665402
scalar Network.dyn_peer[163] 	lookupHopsSig:mean 	12.875
scalar Network.dyn_peer[164] 	lookupTimeSig:mean 	1.45
scalar Network.dyn_peer[164] 	lookupStabilitySig:mean 	0.6230330823455
scalar Network.dyn_peer[164] 	lookupHopsSig:mean 	13.625
scalar Network.dyn_peer[165] 	lookupTimeSig:mean 	1.2111111111111
scalar Network.dyn_peer[165] 	lookupStabilitySig:mean 	0.70945525433247
scalar Network.dyn_peer[165] 	lookupHopsSig:mean 	11.222222222222
scalar Network.dyn_peer[166] 	lookupTimeSig:mean 	1.9636363636364
scalar Network.dyn_peer[166] 	lookupStabilitySig:mean 	0.70272771785544
scalar Network.dyn_peer[166] 	lookupHopsSig:mean 	18.727272727273
scalar Network.dyn_peer[167] 	lookupTimeSig:mean 	2.17
scalar Network.dyn_peer[167] 	lookupStabilitySig:mean 	0.96143299229443
scalar Network.dyn_peer[167] 	lookupHopsSig:mean 	20.8
scalar Network.dyn_peer[168] 	lookupTimeSig:mean 	2.2
scalar Network.dyn_peer[168] 	lookupStabilitySig:mean 	0.52235467918217
scalar Network.dyn_peer[168] 	lookupHopsSig:mean 	21.25
scalar Network.dyn_peer[169] 	lookupTimeSig:mean 	1.5
scalar Network.dyn_peer[169] 	lookupStabilitySig:mean 	0.6376591771841
scalar Network.dyn_peer[169] 	lookupHopsSig:mean 	14.25
scalar Network.dyn_peer[170] 	lookupTimeSig:mean 	0.975
scalar Network.dyn_peer[170] 	lookupStabilitySig:mean 	0.58446361869574
scalar Network.dyn_peer[170] 	lookupHopsSig:mean 	9
scalar Network.dyn_peer[171] 	lookupTimeSig:mean 	2.45
scalar Network.dyn_peer[171] 	lookupStabilitySig:mean 	0.73857216071337
scalar Network.dyn_peer[171] 	lookupHopsSig:mean 	23.75
scalar Network.dyn_peer[172] 	lookupTimeSig:mean 	0.975
scalar Network.dyn_peer[172] 	lookupStabilitySig:mean 	0.59674144722521
scalar Network.dyn_peer[172] 	lookupHopsSig:mean 	9
scalar Network.dyn_peer[173] 	lookupTimeSig:mean 	2.96
scalar Network.dyn_peer[173] 	lookupStabilitySig:mean 	0.93078349598218
scalar Network.dyn_peer[173] 	lookupHopsSig:mean 	28.8
scalar Network.dyn_peer[174] 	lookupTimeSig:mean 	3.05
scalar Network.dyn_peer[174] 	lookupStabilitySig:mean 	0.43306605471298
scalar Network.dyn_peer[174] 	lookupHopsSig:mean 	29.75
scalar Network.dyn_peer[175] 	lookupTimeSig:mean 	1.225
scalar Network.dyn_peer[175] 	lookupStabilitySig:mean 	0.38199660927057
scalar Network.dyn_peer[175] 	lookupHopsSig:mean 	11.5
scalar Network.dyn_peer[176] 	lookupTimeSig:mean 	1.3777777777778
scalar Network.dyn_peer[176] 	lookupStabilitySig:mean 	0.77209500471751
scalar Network.dyn_peer[176] 	lookupHopsSig:mean 	12.888888888889
scalar Network.dyn_peer[177] 	lookupTimeSig:mean 	2.85
scalar Network.dyn_peer[177] 	lookupStabilitySig:mean 	0.95711582957301
scalar Network.dyn_peer[177] 	lookupHopsSig:mean 	27.625
scalar Network.dyn_peer[178] 	lookupTimeSig:mean 	1.8
scalar Network.dyn_peer[178] 	lookupStabilitySig:mean 	0.89514890282104
scalar Network.dyn_peer[178] 	lookupHopsSig:mean 	17.166666666667
scalar Network.dyn_peer[179] 	lookupTimeSig:mean 	0.82
scalar Network.dyn_peer[179] 	lookupStabilitySig:mean 	0.58781917095184
scalar Network.dyn_peer[179] 	lookupHopsSig:mean 	7.4
scalar Network.dyn_peer[180] 	lookupTimeSig:mean 	1.64
scalar Network.dyn_peer[180] 	lookupStabilitySig:mean 	0.79118472374976
scalar Network.dyn_peer[180] 	lookupHopsSig:mean 	15.6
scalar Network.dyn_peer[181] 	lookupTimeSig:mean 	1.8125
scalar Network.dyn_peer[181] 	lookupStabilitySig:mean 	0.86219100648304
scalar Network.dyn_peer[181] 	lookupHopsSig:mean 	17.25
scalar Network.dyn_peer[182] 	lookupTimeSig:mean 	1.35
scalar Network.dyn_peer[182] 	lookupStabilitySig:mean 	-0.079999983310699
scalar Network.dyn_peer[182] 	lookupHopsSig:mean 	13
scalar Network.dyn_peer[183] 	lookupTimeSig:mean 	1.48
scalar Network.dyn_peer[183] 	lookupStabilitySig:mean 	0.50690577551723
scalar Network.dyn_peer[183] 	lookupHopsSig:mean 	14
scalar Network.dyn_peer[184] 	lookupTimeSig:mean 	2.9
scalar Network.dyn_peer[184] 	lookupStabilitySig:mean 	-0.24197533726692
scalar Network.dyn_peer[184] 	lookupHopsSig:mean 	28.5
scalar Network.dyn_peer[185] 	lookupTimeSig:mean 	2.2444444444444
scalar Network.dyn_peer[185] 	lookupStabilitySig:mean 	0.89757509871076
scalar Network.dyn_peer[185] 	lookupHopsSig:mean 	21.555555555556
scalar Network.dyn_peer[186] 	lookupTimeSig:mean 	3.05
scalar Network.dyn_peer[186] 	lookupStabilitySig:mean 	0.84159102104604
scalar Network.dyn_peer[186] 	lookupHopsSig:mean 	29.75
scalar Network.dyn_peer[187] 	lookupTimeSig:mean 	1.5875
scalar Network.dyn_peer[187] 	lookupStabilitySig:mean 	0.65592134161852
scalar Network.dyn_peer[187] 	lookupHopsSig:mean 	15
scalar Network.dyn_peer[188] 	lookupTimeSig:mean 	1.76
scalar Network.dyn_peer[188] 	lookupStabilitySig:mean 	0.87792798085138
scalar Network.dyn_peer[188] 	lookupHopsSig:mean 	16.7
scalar Network.dyn_peer[189] 	lookupTimeSig:mean 	1.63
scalar Network.dyn_peer[189] 	lookupStabilitySig:mean 	0.94579053884372
scalar Network.dyn_peer[189] 	lookupHopsSig:mean 	15.4
scalar Network.dyn_peer[190] 	lookupTimeSig:mean 	1.85
scalar Network.dyn_peer[190] 	lookupStabilitySig:mean 	0.56572555191815
scalar Network.dyn_peer[190] 	lookupHopsSig:mean 	17.75
scalar Network.dyn_peer[191] 	lookupTimeSig:mean 	1.22
scalar Network.dyn_peer[191] 	lookupStabilitySig:mean 	0.65707289800048
scalar Network.dyn_peer[191] 	lookupHopsSig:mean 	11.4
scalar Network.dyn_peer[192] 	lookupTimeSig:mean 	1.525
scalar Network.dyn_peer[192] 	lookupStabilitySig:mean 	0.57503750850447
scalar Network.dyn_peer[192] 	lookupHopsSig:mean 	14.5
scalar Network.dyn_peer[193] 	lookupTimeSig:mean 	3
scalar Network.dyn_peer[193] 	lookupStabilitySig:mean 	0.93559324145317
scalar Network.dyn_peer[193] 	lookupHopsSig:mean 	29.2
scalar Network.dyn_peer[194] 	lookupTimeSig:mean 	1.5846153846154
scalar Network.dyn_peer[194] 	lookupStabilitySig:mean 	0.78443464078009
scalar Network.dyn_peer[194] 	lookupHopsSig:mean 	14.923076923077
scalar Network.dyn_peer[195] 	lookupTimeSig:mean 	1.7214285714286
scalar Network.dyn_peer[195] 	lookupStabilitySig:mean 	0.84909836402429
scalar Network.dyn_peer[195] 	lookupHopsSig:mean 	16.285714285714
scalar Network.dyn_peer[196] 	lookupTimeSig:mean 	2.01
scalar Network.dyn_peer[196] 	lookupStabilitySig:mean 	0.90124702118337
scalar Network.dyn_peer[196] 	lookupHopsSig:mean 	19.2
scalar Network.dyn_peer[197] 	lookupTimeSig:mean 	3.025
scalar Network.dyn_peer[197] 	lookupStabilitySig:mean 	0.48356310883537
scalar Network.dyn_peer[197] 	lookupHopsSig:mean 	29.5
scalar Network.dyn_peer[198] 	lookupTimeSig:mean 	2.54
scalar Network.dyn_peer[198] 	lookupStabilitySig:mean 	0.87122532352805
scalar Network.dyn_peer[198] 	lookupHopsSig:mean 	24.6
scalar Network.dyn_peer[199] 	lookupTimeSig:mean 	1.6
scalar Network.dyn_peer[199] 	lookupStabilitySig:mean 	0.74981373012997
scalar Network.dyn_peer[199] 	lookupHopsSig:mean 	15.25
scalar Network.dyn_peer[200] 	lookupTimeSig:mean 	2.0666666666667
scalar Network.dyn_peer[200] 	lookupStabilitySig:mean 	0.66152629256248
scalar Network.dyn_peer[200] 	lookupHopsSig:mean 	20
scalar Network.dyn_peer[201] 	lookupTimeSig:mean 	1.5384615384615
scalar Network.dyn_peer[201] 	lookupStabilitySig:mean 	0.75634786925422
scalar Network.dyn_peer[201] 	lookupHopsSig:mean 	14.461538461538
scalar Network.dyn_peer[202] 	lookupTimeSig:mean 	1.5571428571429
scalar Network.dyn_peer[202] 	lookupStabilitySig:mean 	0.62245859551643
scalar Network.dyn_peer[202] 	lookupHopsSig:mean 	14.714285714286
scalar Network.dyn_peer[203] 	lookupTimeSig:mean 	3.8
scalar Network.dyn_peer[203] 	lookupStabilitySig:mean 	0.896419711411
scalar Network.dyn_peer[203] 	lookupHopsSig:mean 	37.333333333333
scalar Network.dyn_peer[204] 	lookupTimeSig:mean 	2.75
scalar Network.dyn_peer[204] 	lookupStabilitySig:mean 	0.63770053908229
scalar Network.dyn_peer[204] 	lookupHopsSig:mean 	27
scalar Network.dyn_peer[205] 	lookupTimeSig:mean 	1.5307692307692
scalar Network.dyn_peer[205] 	lookupStabilitySig:mean 	0.92950369614678
scalar Network.dyn_peer[205] 	lookupHopsSig:mean 	14.384615384615
scalar Network.dyn_peer[206] 	lookupTimeSig:mean 	1.5
scalar Network.dyn_peer[206] 	lookupStabilitySig:mean 	0.60318339150399
scalar Network.dyn_peer[206] 	lookupHopsSig:mean 	14.25
scalar Network.dyn_peer[207] 	lookupTimeSig:mean 	2.2875
scalar Network.dyn_peer[207] 	lookupStabilitySig:mean 	0.94359194347635
scalar Network.dyn_peer[207] 	lookupHopsSig:mean 	22
scalar Network.dyn_peer[208] 	lookupTimeSig:mean 	1.5
scalar Network.dyn_peer[208] 	lookupStabilitySig:mean 	0.34593836963177
scalar Network.dyn_peer[208] 	lookupHopsSig:mean 	14.333333333333
scalar Network.dyn_peer[209] 	lookupTimeSig:mean 	1.5428571428571
scalar Network.dyn_peer[209] 	lookupStabilitySig:mean 	0.83979609688478
scalar Network.dyn_peer[209] 	lookupHopsSig:mean 	14.571428571429
scalar Network.dyn_peer[210] 	lookupTimeSig:mean 	1.525
scalar Network.dyn_peer[210] 	lookupStabilitySig:mean 	0.69377015158534
scalar Network.dyn_peer[210] 	lookupHopsSig:mean 	14.5
scalar Network.dyn_peer[211] 	lookupTimeSig:mean 	1.58
scalar Network.dyn_peer[211] 	lookupStabilitySig:mean 	0.87702055200934
scalar Network.dyn_peer[211] 	lookupHopsSig:mean 	15
scalar Network.dyn_peer[212] 	lookupTimeSig:mean 	2.5714285714286
scalar Network.dyn_peer[212] 	lookupStabilitySig:mean 	0.95093659145225
scalar Network.dyn_peer[212] 	lookupHopsSig:mean 	24.857142857143
scalar Network.dyn_peer[213] 	lookupTimeSig:mean 	1.59
scalar Network.dyn_peer[213] 	lookupStabilitySig:mean 	0.74508671578951
scalar Network.dyn_peer[213] 	lookupHopsSig:mean 	15
scalar Network.dyn_peer[214] 	lookupTimeSig:mean 	1.7
scalar Network.dyn_peer[214] 	lookupStabilitySig:mean 	0.82374790010767
scalar Network.dyn_peer[214] 	lookupHopsSig:mean 	16.111111111111
scalar Network.dyn_peer[215] 	lookupTimeSig:mean 	1.4333333333333
scalar Network.dyn_peer[215] 	lookupStabilitySig:mean 	0.77795836112152
scalar Network.dyn_peer[215] 	lookupHopsSig:mean 	13.5
scalar Network.dyn_peer[216] 	lookupTimeSig:mean 	1.1571428571429
scalar Network.dyn_peer[216] 	lookupStabilitySig:mean 	0.70128766127995
scalar Network.dyn_peer[216] 	lookupHopsSig:mean 	10.714285714286
scalar Network.dyn_peer[217] 	lookupTimeSig:mean 	1.7833333333333
scalar Network.dyn_peer[217] 	lookupStabilitySig:mean 	0.82789451442659
scalar Network.dyn_peer[217] 	lookupHopsSig:mean 	17
scalar Network.dyn_peer[218] 	lookupTimeSig:mean 	2.52
scalar Network.dyn_peer[218] 	lookupStabilitySig:mean 	0.81626922339201
scalar Network.dyn_peer[218] 	lookupHopsSig:mean 	24.4
scalar Network.dyn_peer[219] 	lookupTimeSig:mean 	2.96
scalar Network.dyn_peer[219] 	lookupStabilitySig:mean 	0.68917468525469
scalar Network.dyn_peer[219] 	lookupHopsSig:mean 	28.8
scalar Network.dyn_peer[220] 	lookupTimeSig:mean 	2.06
scalar Network.dyn_peer[220] 	lookupStabilitySig:mean 	0.78874858971685
scalar Network.dyn_peer[220] 	lookupHopsSig:mean 	19.8
scalar Network.dyn_peer[221] 	lookupTimeSig:mean 	3.75
scalar Network.dyn_peer[221] 	lookupStabilitySig:mean 	0.30494809150696
scalar Network.dyn_peer[221] 	lookupHopsSig:mean 	37
scalar Network.dyn_peer[222] 	lookupTimeSig:mean 	1.5571428571429
scalar Network.dyn_peer[222] 	lookupStabilitySig:mean 	0.56005361569779
scalar Network.dyn_peer[222] 	lookupHopsSig:mean 	14.714285714286
scalar Network.dyn_peer[223] 	lookupTimeSig:mean 	2.175
scalar Network.dyn_peer[223] 	lookupStabilitySig:mean 	0.66229910054244
scalar Network.dyn_peer[223] 	lookupHopsSig:mean 	20.875
scalar Network.dyn_peer[224] 	lookupTimeSig:mean 	1.58
scalar Network.dyn_peer[224] 	lookupStabilitySig:mean 	0.97284182924777
scalar Network.dyn_peer[224] 	lookupHopsSig:mean 	14.866666666667
scalar Network.dyn_peer[225] 	lookupTimeSig:mean 	0.96666666666667
scalar Network.dyn_peer[225] 	lookupStabilitySig:mean 	0.20645159482956
scalar Network.dyn_peer[225] 	lookupHopsSig:mean 	9
scalar Network.dyn_peer[226] 	lookupTimeSig:mean 	1.21
scalar Network.dyn_peer[226] 	lookupStabilitySig:mean 	0.70257566492073
scalar Network.dyn_peer[226] 	lookupHopsSig:mean 	11.2
scalar Network.dyn_peer[227] 	lookupTimeSig:mean 	3
scalar Network.dyn_peer[227] 	lookupStabilitySig:mean 	0.76526027421157
scalar Network.dyn_peer[227] 	lookupHopsSig:mean 	29.333333333333
scalar Network.dyn_peer[228] 	lookupTimeSig:mean 	1.5
scalar Network.dyn_peer[228] 	lookupStabilitySig:mean 	0.91505592482281
scalar Network.dyn_peer[228] 	lookupHopsSig:mean 	14.125
scalar Network.dyn_peer[229] 	lookupTimeSig:mean 	1.6363636363636
scalar Network.dyn_peer[229] 	lookupStabilitySig:mean 	0.79381641703234
scalar Network.dyn_peer[229] 	lookupHopsSig:mean 	15.454545454545
scalar Network.dyn_peer[230] 	lookupTimeSig:mean 	1.9
scalar Network.dyn_peer[230] 	lookupStabilitySig:mean 	0.56244021623085
scalar Network.dyn_peer[230] 	lookupHopsSig:mean 	18.166666666667
scalar Network.dyn_peer[231] 	lookupTimeSig:mean 	2.1
scalar Network.dyn_peer[231] 	lookupStabilitySig:mean 	0.71633849665523
scalar Network.dyn_peer[231] 	lookupHopsSig:mean 	20.25
scalar Network.dyn_peer[232] 	lookupTimeSig:mean 	1.7111111111111
scalar Network.dyn_peer[232] 	lookupStabilitySig:mean 	0.8973962093393
scalar Network.dyn_peer[232] 	lookupHopsSig:mean 	16.222222222222
scalar Network.dyn_peer[233] 	lookupTimeSig:mean 	1.6125
scalar Network.dyn_peer[233] 	lookupStabilitySig:mean 	0.93759262908134
scalar Network.dyn_peer[233] 	lookupHopsSig:mean 	15.25
scalar Network.dyn_peer[234] 	lookupTimeSig:mean 	1.17
scalar Network.dyn_peer[234] 	lookupStabilitySig:mean 	0.84696208236273
scalar Network.dyn_peer[234] 	lookupHopsSig:mean 	10.8
scalar Network.dyn_peer[235] 	lookupTimeSig:mean 	1.32
scalar Network.dyn_peer[235] 	lookupStabilitySig:mean 	0.49650406986475
scalar Network.dyn_peer[235] 	lookupHopsSig:mean 	12.4
scalar Network.dyn_peer[236] 	lookupTimeSig:mean 	1.975
scalar Network.dyn_peer[236] 	lookupStabilitySig:mean 	0.64444443583488
scalar Network.dyn_peer[236] 	lookupHopsSig:mean 	19
scalar Network.dyn_peer[237] 	lookupTimeSig:mean 	2.25
scalar Network.dyn_peer[237] 	lookupStabilitySig:mean 	0.73324548266828
scalar Network.dyn_peer[237] 	lookupHopsSig:mean 	21.75
scalar Network.dyn_peer[238] 	lookupTimeSig:mean 	2
scalar Network.dyn_peer[238] 	lookupStabilitySig:mean 	0.48220758922398
scalar Network.dyn_peer[238] 	lookupHopsSig:mean 	19.2
scalar Network.dyn_peer[239] 	lookupTimeSig:mean 	1.7636363636364
scalar Network.dyn_peer[239] 	lookupStabilitySig:mean 	0.93438239776614
scalar Network.dyn_peer[239] 	lookupHopsSig:mean 	16.727272727273
scalar Network.dyn_peer[240] 	lookupTimeSig:mean 	1.6
scalar Network.dyn_peer[240] 	lookupStabilitySig:mean 	0.84132413449697
scalar Network.dyn_peer[240] 	lookupHopsSig:mean 	15.071428571429
scalar Network.dyn_peer[241] 	lookupTimeSig:mean 	3.3
scalar Network.dyn_peer[241] 	lookupStabilitySig:mean 	0.094633810222149
scalar Network.dyn_peer[241] 	lookupHopsSig:mean 	32.333333333333
scalar Network.dyn_peer[242] 	lookupTimeSig:mean 	2.6
scalar Network.dyn_peer[242] 	lookupStabilitySig:mean 	0.8797891177237
scalar Network.dyn_peer[242] 	lookupHopsSig:mean 	25.2
scalar Network.dyn_peer[243] 	lookupTimeSig:mean 	2.1666666666667
scalar Network.dyn_peer[243] 	lookupStabilitySig:mean 	0.86240221901486
scalar Network.dyn_peer[243] 	lookupHopsSig:mean 	20.833333333333
scalar Network.dyn_peer[244] 	lookupTimeSig:mean 	1.6
scalar Network.dyn_peer[244] 	lookupStabilitySig:mean 	0.7471480993554
scalar Network.dyn_peer[244] 	lookupHopsSig:mean 	15.142857142857
scalar Network.dyn_peer[245] 	lookupTimeSig:mean 	1.6428571428571
scalar Network.dyn_peer[245] 	lookupStabilitySig:mean 	0.82312885206193
scalar Network.dyn_peer[245] 	lookupHopsSig:mean 	15.571428571429
scalar Network.dyn_peer[246] 	lookupTimeSig:mean 	0.98333333333333
scalar Network.dyn_peer[246] 	lookupStabilitySig:mean 	0.80262857603763
scalar Network.dyn_peer[246] 	lookupHopsSig:mean 	8.9166666666667
scalar Network.dyn_peer[247] 	lookupTimeSig:mean 	1.9
scalar Network.dyn_peer[247] 	lookupStabilitySig:mean 	0.91637171257753
scalar Network.dyn_peer[247] 	lookupHopsSig:mean 	18.125
scalar Network.dyn_peer[248] 	lookupTimeSig:mean 	1.6285714285714
scalar Network.dyn_peer[248] 	lookupStabilitySig:mean 	0.71981668705121
scalar Network.dyn_peer[248] 	lookupHopsSig:mean 	15.428571428571
scalar Network.dyn_peer[249] 	lookupTimeSig:mean 	1.5333333333333
scalar Network.dyn_peer[249] 	lookupStabilitySig:mean 	0.78575981517012
scalar Network.dyn_peer[249] 	lookupHopsSig:mean 	14.5
scalar Network.dyn_peer[250] 	lookupTimeSig:mean 	1.9916666666667
scalar Network.dyn_peer[250] 	lookupStabilitySig:mean 	0.95423194533214
scalar Network.dyn_peer[250] 	lookupHopsSig:mean 	19
scalar Network.dyn_peer[251] 	lookupTimeSig:mean 	2.125
scalar Network.dyn_peer[251] 	lookupStabilitySig:mean 	0.8265704405494
scalar Network.dyn_peer[251] 	lookupHopsSig:mean 	20.375
scalar Network.dyn_peer[252] 	lookupTimeSig:mean 	4.25
scalar Network.dyn_peer[252] 	lookupStabilitySig:mean 	0.62412587925792
scalar Network.dyn_peer[252] 	lookupHopsSig:mean 	42
scalar Network.dyn_peer[253] 	lookupTimeSig:mean 	1.1
scalar Network.dyn_peer[253] 	lookupStabilitySig:mean 	0.60346789272236
scalar Network.dyn_peer[253] 	lookupHopsSig:mean 	10.142857142857
scalar Network.dyn_peer[254] 	lookupTimeSig:mean 	0.975
scalar Network.dyn_peer[254] 	lookupStabilitySig:mean 	0.39576494880021
scalar Network.dyn_peer[254] 	lookupHopsSig:mean 	9
scalar Network.dyn_peer[255] 	lookupTimeSig:mean 	2.95
scalar Network.dyn_peer[255] 	lookupStabilitySig:mean 	0.94854996772483
scalar Network.dyn_peer[255] 	lookupHopsSig:mean 	28.625
scalar Network.dyn_peer[256] 	lookupTimeSig:mean 	2.35
scalar Network.dyn_peer[256] 	lookupStabilitySig:mean 	0.69400959834456
scalar Network.dyn_peer[256] 	lookupHopsSig:mean 	22.75
scalar Network.dyn_peer[257] 	lookupTimeSig:mean 	2.325
scalar Network.dyn_peer[257] 	lookupStabilitySig:mean 	0.54083544015884
scalar Network.dyn_peer[257] 	lookupHopsSig:mean 	22.5
scalar Network.dyn_peer[258] 	lookupTimeSig:mean 	3.0333333333333
scalar Network.dyn_peer[258] 	lookupStabilitySig:mean 	0.86501262833675
scalar Network.dyn_peer[258] 	lookupHopsSig:mean 	29.666666666667
scalar Network.dyn_peer[259] 	lookupTimeSig:mean 	1.52
scalar Network.dyn_peer[259] 	lookupStabilitySig:mean 	0.76556704640388
scalar Network.dyn_peer[259] 	lookupHopsSig:mean 	14.4
scalar Network.dyn_peer[260] 	lookupTimeSig:mean 	3.5
scalar Network.dyn_peer[260] 	lookupStabilitySig:mean 	-0.19578317552805
scalar Network.dyn_peer[260] 	lookupHopsSig:mean 	34.5
scalar Network.dyn_peer[261] 	lookupTimeSig:mean 	2.8
scalar Network.dyn_peer[261] 	lookupStabilitySig:mean 	0.67364543800553
scalar Network.dyn_peer[261] 	lookupHopsSig:mean 	27.333333333333
scalar Network.dyn_peer[262] 	lookupTimeSig:mean 	1.9083333333333
scalar Network.dyn_peer[262] 	lookupStabilitySig:mean 	0.96586681688981
scalar Network.dyn_peer[262] 	lookupHopsSig:mean 	18.166666666667
scalar Network.dyn_peer[263] 	lookupTimeSig:mean 	1.6142857142857
scalar Network.dyn_peer[263] 	lookupStabilitySig:mean 	0.56023304716551
scalar Network.dyn_peer[263] 	lookupHopsSig:mean 	15.285714285714
scalar Network.dyn_peer[264] 	lookupTimeSig:mean 	1.625
scalar Network.dyn_peer[264] 	lookupStabilitySig:mean 	0.70241088420153
scalar Network.dyn_peer[264] 	lookupHopsSig:mean 	15.5
scalar Network.dyn_peer[265] 	lookupTimeSig:mean 	2.2428571428571
scalar Network.dyn_peer[265] 	lookupStabilitySig:mean 	0.93887711316347
scalar Network.dyn_peer[265] 	lookupHopsSig:mean 	21.571428571429
scalar Network.dyn_peer[266] 	lookupTimeSig:mean 	3.2
scalar Network.dyn_peer[266] 	lookupStabilitySig:mean 	0.27594821155071
scalar Network.dyn_peer[266] 	lookupHopsSig:mean 	31.333333333333
scalar Network.dyn_peer[267] 	lookupTimeSig:mean 	1.9125
scalar Network.dyn_peer[267] 	lookupStabilitySig:mean 	0.65413645538501
scalar Network.dyn_peer[267] 	lookupHopsSig:mean 	18.25
scalar Network.dyn_peer[268] 	lookupTimeSig:mean 	2.2666666666667
scalar Network.dyn_peer[268] 	lookupStabilitySig:mean 	0.90006516966969
scalar Network.dyn_peer[268] 	lookupHopsSig:mean 	21.75
scalar Network.dyn_peer[269] 	lookupTimeSig:mean 	3.3
scalar Network.dyn_peer[269] 	lookupStabilitySig:mean 	0.33664315193892
scalar Network.dyn_peer[269] 	lookupHopsSig:mean 	32.5
scalar Network.dyn_peer[270] 	lookupTimeSig:mean 	1.7666666666667
scalar Network.dyn_peer[270] 	lookupStabilitySig:mean 	0.59312361168365
scalar Network.dyn_peer[270] 	lookupHopsSig:mean 	16.833333333333
scalar Network.dyn_peer[271] 	lookupTimeSig:mean 	2.275
scalar Network.dyn_peer[271] 	lookupStabilitySig:mean 	0.66539054643363
scalar Network.dyn_peer[271] 	lookupHopsSig:mean 	22
scalar Network.dyn_peer[272] 	lookupTimeSig:mean 	2
scalar Network.dyn_peer[272] 	lookupStabilitySig:mean 	0.67202572276195
scalar Network.dyn_peer[272] 	lookupHopsSig:mean 	19.333333333333
scalar Network.dyn_peer[273] 	lookupTimeSig:mean 	0.8
scalar Network.dyn_peer[273] 	lookupStabilitySig:mean 	0.28757309913635
scalar Network.dyn_peer[273] 	lookupHopsSig:mean 	7.25
scalar Network.dyn_peer[274] 	lookupTimeSig:mean 	1.3166666666667
scalar Network.dyn_peer[274] 	lookupStabilitySig:mean 	0.65955609199591
scalar Network.dyn_peer[274] 	lookupHopsSig:mean 	12.333333333333
scalar Network.dyn_peer[275] 	lookupTimeSig:mean 	1.32
scalar Network.dyn_peer[275] 	lookupStabilitySig:mean 	0.89772813143209
scalar Network.dyn_peer[275] 	lookupHopsSig:mean 	12.3
scalar Network.dyn_peer[276] 	lookupTimeSig:mean 	2.3583333333333
scalar Network.dyn_peer[276] 	lookupStabilitySig:mean 	0.96656124833195
scalar Network.dyn_peer[276] 	lookupHopsSig:mean 	22.666666666667
scalar Network.dyn_peer[277] 	lookupTimeSig:mean 	1.5142857142857
scalar Network.dyn_peer[277] 	lookupStabilitySig:mean 	0.81038555396455
scalar Network.dyn_peer[277] 	lookupHopsSig:mean 	14.285714285714
scalar Network.dyn_peer[278] 	lookupTimeSig:mean 	1.25
scalar Network.dyn_peer[278] 	lookupStabilitySig:mean 	0.72088893161466
scalar Network.dyn_peer[278] 	lookupHopsSig:mean 	11.666666666667
scalar Network.dyn_peer[279] 	lookupTimeSig:mean 	3.9
scalar Network.dyn_peer[279] 	lookupStabilitySig:mean 	0.16692643860976
scalar Network.dyn_peer[279] 	lookupHopsSig:mean 	38.333333333333
scalar Network.dyn_peer[280] 	lookupTimeSig:mean 	1.8714285714286
scalar Network.dyn_peer[280] 	lookupStabilitySig:mean 	0.6423140032483
scalar Network.dyn_peer[280] 	lookupHopsSig:mean 	17.857142857143
scalar Network.dyn_peer[281] 	lookupTimeSig:mean 	2.0285714285714
scalar Network.dyn_peer[281] 	lookupStabilitySig:mean 	0.93843207880855
scalar Network.dyn_peer[281] 	lookupHopsSig:mean 	19.428571428571
scalar Network.dyn_peer[282] 	lookupTimeSig:mean 	1.8181818181818
scalar Network.dyn_peer[282] 	lookupStabilitySig:mean 	0.94974037352949
scalar Network.dyn_peer[282] 	lookupHopsSig:mean 	17.272727272727
scalar Network.dyn_peer[283] 	lookupTimeSig:mean 	2.6
scalar Network.dyn_peer[283] 	lookupStabilitySig:mean 	0.35531284908454
scalar Network.dyn_peer[283] 	lookupHopsSig:mean 	25.333333333333
scalar Network.dyn_peer[284] 	lookupTimeSig:mean 	1.7
scalar Network.dyn_peer[284] 	lookupStabilitySig:mean 	0.35415343269706
scalar Network.dyn_peer[284] 	lookupHopsSig:mean 	16.2
scalar Network.dyn_peer[285] 	lookupTimeSig:mean 	1.8
scalar Network.dyn_peer[285] 	lookupStabilitySig:mean 	0.17362754543622
scalar Network.dyn_peer[285] 	lookupHopsSig:mean 	17.333333333333
scalar Network.dyn_peer[286] 	lookupTimeSig:mean 	4.15
scalar Network.dyn_peer[286] 	lookupStabilitySig:mean 	0.62191972509027
scalar Network.dyn_peer[286] 	lookupHopsSig:mean 	41
scalar Network.dyn_peer[287] 	lookupTimeSig:mean 	1.6666666666667
scalar Network.dyn_peer[287] 	lookupStabilitySig:mean 	0.35286197066307
scalar Network.dyn_peer[287] 	lookupHopsSig:mean 	16
scalar Network.dyn_peer[288] 	lookupTimeSig:mean 	1.7625
scalar Network.dyn_peer[288] 	lookupStabilitySig:mean 	0.89332393271616
scalar Network.dyn_peer[288] 	lookupHopsSig:mean 	16.75
scalar Network.dyn_peer[289] 	lookupTimeSig:mean 	2.76
scalar Network.dyn_peer[289] 	lookupStabilitySig:mean 	0.69255045130849
scalar Network.dyn_peer[289] 	lookupHopsSig:mean 	26.8
scalar Network.dyn_peer[290] 	lookupTimeSig:mean 	2.16
scalar Network.dyn_peer[290] 	lookupStabilitySig:mean 	0.65011302381754
scalar Network.dyn_peer[290] 	lookupHopsSig:mean 	20.8
scalar Network.dyn_peer[291] 	lookupTimeSig:mean 	3.5666666666667
scalar Network.dyn_peer[291] 	lookupStabilitySig:mean 	0.93919637558671
scalar Network.dyn_peer[291] 	lookupHopsSig:mean 	34.833333333333
scalar Network.dyn_peer[292] 	lookupTimeSig:mean 	2.06
scalar Network.dyn_peer[292] 	lookupStabilitySig:mean 	0.88756843078881
scalar Network.dyn_peer[292] 	lookupHopsSig:mean 	19.7
scalar Network.dyn_peer[293] 	lookupTimeSig:mean 	2.3333333333333
scalar Network.dyn_peer[293] 	lookupStabilitySig:mean 	0.33028613775969
scalar Network.dyn_peer[293] 	lookupHopsSig:mean 	22.666666666667
scalar Network.dyn_peer[294] 	lookupTimeSig:mean 	2.675
scalar Network.dyn_peer[294] 	lookupStabilitySig:mean 	0.84239421412349
scalar Network.dyn_peer[294] 	lookupHopsSig:mean 	26
scalar Network.dyn_peer[295] 	lookupTimeSig:mean 	1.8875
scalar Network.dyn_peer[295] 	lookupStabilitySig:mean 	0.88977196248015
scalar Network.dyn_peer[295] 	lookupHopsSig:mean 	18
scalar Network.dyn_peer[296] 	lookupTimeSig:mean 	1.4
scalar Network.dyn_peer[296] 	lookupStabilitySig:mean 	0.52245889720507
scalar Network.dyn_peer[296] 	lookupHopsSig:mean 	13.25
scalar Network.dyn_peer[297] 	lookupTimeSig:mean 	2.9375
scalar Network.dyn_peer[297] 	lookupStabilitySig:mean 	0.94876879960066
scalar Network.dyn_peer[297] 	lookupHopsSig:mean 	28.5
scalar Network.dyn_peer[298] 	lookupTimeSig:mean 	1.6666666666667
scalar Network.dyn_peer[298] 	lookupStabilitySig:mean 	0.24717025955518
scalar Network.dyn_peer[298] 	lookupHopsSig:mean 	16
scalar Network.dyn_peer[299] 	lookupTimeSig:mean 	1.5
scalar Network.dyn_peer[299] 	lookupStabilitySig:mean 	0.13461538155874
scalar Network.dyn_peer[299] 	lookupHopsSig:mean 	14.333333333333
scalar Network.dyn_peer[300] 	lookupTimeSig:mean 	3.15
scalar Network.dyn_peer[300] 	lookupStabilitySig:mean 	-0.11881188303232
scalar Network.dyn_peer[300] 	lookupHopsSig:mean 	31
scalar Network.dyn_peer[301] 	lookupTimeSig:mean 	1.6285714285714
scalar Network.dyn_peer[301] 	lookupStabilitySig:mean 	0.78976648500455
scalar Network.dyn_peer[301] 	lookupHopsSig:mean 	15.428571428571
scalar Network.dyn_peer[302] 	lookupTimeSig:mean 	2.725
scalar Network.dyn_peer[302] 	lookupStabilitySig:mean 	0.67230804916471
scalar Network.dyn_peer[302] 	lookupHopsSig:mean 	26.5
scalar Network.dyn_peer[303] 	lookupTimeSig:mean 	0.63333333333333
scalar Network.dyn_peer[303] 	lookupStabilitySig:mean 	0.057142818967501
scalar Network.dyn_peer[303] 	lookupHopsSig:mean 	5.6666666666667
scalar Network.dyn_peer[304] 	lookupTimeSig:mean 	1.6
scalar Network.dyn_peer[304] 	lookupStabilitySig:mean 	0.27572114020586
scalar Network.dyn_peer[304] 	lookupHopsSig:mean 	15.25
scalar Network.dyn_peer[305] 	lookupTimeSig:mean 	2.72
scalar Network.dyn_peer[305] 	lookupStabilitySig:mean 	0.69711636546999
scalar Network.dyn_peer[305] 	lookupHopsSig:mean 	26.4
scalar Network.dyn_peer[306] 	lookupTimeSig:mean 	1.68
scalar Network.dyn_peer[306] 	lookupStabilitySig:mean 	0.51002920567989
scalar Network.dyn_peer[306] 	lookupHopsSig:mean 	16
scalar Network.dyn_peer[307] 	lookupTimeSig:mean 	1.4875
scalar Network.dyn_peer[307] 	lookupStabilitySig:mean 	0.73518681025598
scalar Network.dyn_peer[307] 	lookupHopsSig:mean 	14
scalar Network.dyn_peer[308] 	lookupTimeSig:mean 	2.26
scalar Network.dyn_peer[308] 	lookupStabilitySig:mean 	0.6511520203203
scalar Network.dyn_peer[308] 	lookupHopsSig:mean 	21.8
scalar Network.dyn_peer[309] 	lookupTimeSig:mean 	2.55
scalar Network.dyn_peer[309] 	lookupStabilitySig:mean 	0.23353075422347
scalar Network.dyn_peer[309] 	lookupHopsSig:mean 	24.75
scalar Network.dyn_peer[310] 	lookupTimeSig:mean 	1.075
scalar Network.dyn_peer[310] 	lookupStabilitySig:mean 	0.48529607802629
scalar Network.dyn_peer[310] 	lookupHopsSig:mean 	10
scalar Network.dyn_peer[311] 	lookupTimeSig:mean 	1.6272727272727
scalar Network.dyn_peer[311] 	lookupStabilitySig:mean 	0.88079244211655
scalar Network.dyn_peer[311] 	lookupHopsSig:mean 	15.363636363636
scalar Network.dyn_peer[312] 	lookupTimeSig:mean 	2.1
scalar Network.dyn_peer[312] 	lookupStabilitySig:mean 	0.89876857555161
scalar Network.dyn_peer[312] 	lookupHopsSig:mean 	20.166666666667
scalar Network.dyn_peer[313] 	lookupTimeSig:mean 	1.725
scalar Network.dyn_peer[313] 	lookupStabilitySig:mean 	0.88993468997069
scalar Network.dyn_peer[313] 	lookupHopsSig:mean 	16.375
scalar Network.dyn_peer[314] 	lookupTimeSig:mean 	2.375
scalar Network.dyn_peer[314] 	lookupStabilitySig:mean 	0.79629285354167
scalar Network.dyn_peer[314] 	lookupHopsSig:mean 	23
scalar Network.dyn_peer[315] 	lookupTimeSig:mean 	1.66
scalar Network.dyn_peer[315] 	lookupStabilitySig:mean 	0.57333084642887
scalar Network.dyn_peer[315] 	lookupHopsSig:mean 	15.8
scalar Network.dyn_peer[316] 	lookupTimeSig:mean 	1.9555555555556
scalar Network.dyn_peer[316] 	lookupStabilitySig:mean 	0.9197205265777
scalar Network.dyn_peer[316] 	lookupHopsSig:mean 	18.666666666667
scalar Network.dyn_peer[317] 	lookupTimeSig:mean 	2.8571428571429
scalar Network.dyn_peer[317] 	lookupStabilitySig:mean 	0.91947507166437
scalar Network.dyn_peer[317] 	lookupHopsSig:mean 	27.714285714286
scalar Network.dyn_peer[318] 	lookupTimeSig:mean 	2.15
scalar Network.dyn_peer[318] 	lookupStabilitySig:mean 	0.60353112593293
scalar Network.dyn_peer[318] 	lookupHopsSig:mean 	20.75
scalar Network.dyn_peer[319] 	lookupTimeSig:mean 	2.7
scalar Network.dyn_peer[319] 	lookupStabilitySig:mean 	0.60019763186574
scalar Network.dyn_peer[319] 	lookupHopsSig:mean 	26.5
scalar Network.dyn_peer[320] 	lookupTimeSig:mean 	1.4714285714286
scalar Network.dyn_peer[320] 	lookupStabilitySig:mean 	0.62367937873517
scalar Network.dyn_peer[320] 	lookupHopsSig:mean 	13.857142857143
scalar Network.dyn_peer[321] 	lookupTimeSig:mean 	2.1
scalar Network.dyn_peer[321] 	lookupStabilitySig:mean 	0.54575902596116
scalar Network.dyn_peer[321] 	lookupHopsSig:mean 	20.25
scalar Network.dyn_peer[322] 	lookupTimeSig:mean 	1.55
scalar Network.dyn_peer[322] 	lookupStabilitySig:mean 	0.74427363431702
scalar Network.dyn_peer[322] 	lookupHopsSig:mean 	14.666666666667
scalar Network.dyn_peer[323] 	lookupTimeSig:mean 	3.5666666666667
scalar Network.dyn_peer[323] 	lookupStabilitySig:mean 	0.8153078109026
scalar Network.dyn_peer[323] 	lookupHopsSig:mean 	35
scalar Network.dyn_peer[324] 	lookupTimeSig:mean 	1.6
scalar Network.dyn_peer[324] 	lookupStabilitySig:mean 	0.50192308425903
scalar Network.dyn_peer[324] 	lookupHopsSig:mean 	15.333333333333
scalar Network.dyn_peer[325] 	lookupTimeSig:mean 	1.86
scalar Network.dyn_peer[325] 	lookupStabilitySig:mean 	0.68503562659025
scalar Network.dyn_peer[325] 	lookupHopsSig:mean 	17.8
scalar Network.dyn_peer[326] 	lookupTimeSig:mean 	2.32
scalar Network.dyn_peer[326] 	lookupStabilitySig:mean 	0.77742062583566
scalar Network.dyn_peer[326] 	lookupHopsSig:mean 	22.4
scalar Network.dyn_peer[327] 	lookupTimeSig:mean 	2.0666666666667
scalar Network.dyn_peer[327] 	lookupStabilitySig:mean 	0.88897739187814
scalar Network.dyn_peer[327] 	lookupHopsSig:mean 	19.833333333333
scalar Network.dyn_peer[328] 	lookupTimeSig:mean 	1.56
scalar Network.dyn_peer[328] 	lookupStabilitySig:mean 	0.64527114704251
scalar Network.dyn_peer[328] 	lookupHopsSig:mean 	14.8
scalar Network.dyn_peer[329] 	lookupTimeSig:mean 	1.45
scalar Network.dyn_peer[329] 	lookupStabilitySig:mean 	0.55511512374505
scalar Network.dyn_peer[329] 	lookupHopsSig:mean 	13.75
scalar Network.dyn_peer[330] 	lookupTimeSig:mean 	2.25
scalar Network.dyn_peer[330] 	lookupStabilitySig:mean 	0.84630080056377
scalar Network.dyn_peer[330] 	lookupHopsSig:mean 	21.625
scalar Network.dyn_peer[331] 	lookupTimeSig:mean 	1.325
scalar Network.dyn_peer[331] 	lookupStabilitySig:mean 	0.62897489778697
scalar Network.dyn_peer[331] 	lookupHopsSig:mean 	12.5
scalar Network.dyn_peer[332] 	lookupTimeSig:mean 	1.6083333333333
scalar Network.dyn_peer[332] 	lookupStabilitySig:mean 	0.83973975729896
scalar Network.dyn_peer[332] 	lookupHopsSig:mean 	15.166666666667
scalar Network.dyn_peer[333] 	lookupTimeSig:mean 	2.275
scalar Network.dyn_peer[333] 	lookupStabilitySig:mean 	0.70487800892442
scalar Network.dyn_peer[333] 	lookupHopsSig:mean 	22
scalar Network.dyn_peer[334] 	lookupTimeSig:mean 	1.7909090909091
scalar Network.dyn_peer[334] 	lookupStabilitySig:mean 	0.87741908363321
scalar Network.dyn_peer[334] 	lookupHopsSig:mean 	17
scalar Network.dyn_peer[335] 	lookupTimeSig:mean 	1.94
scalar Network.dyn_peer[335] 	lookupStabilitySig:mean 	0.84203876778483
scalar Network.dyn_peer[335] 	lookupHopsSig:mean 	18.6
scalar Network.dyn_peer[336] 	lookupTimeSig:mean 	4.3
scalar Network.dyn_peer[336] 	lookupStabilitySig:mean 	0.50984098762274
scalar Network.dyn_peer[336] 	lookupHopsSig:mean 	42.5
scalar Network.dyn_peer[337] 	lookupTimeSig:mean 	2.3
scalar Network.dyn_peer[337] 	lookupStabilitySig:mean 	0.86840467378497
scalar Network.dyn_peer[337] 	lookupHopsSig:mean 	22.2
scalar Network.dyn_peer[338] 	lookupTimeSig:mean 	1.825
scalar Network.dyn_peer[338] 	lookupStabilitySig:mean 	0.57989263301715
scalar Network.dyn_peer[338] 	lookupHopsSig:mean 	17.5
scalar Network.dyn_peer[339] 	lookupTimeSig:mean 	2.3666666666667
scalar Network.dyn_peer[339] 	lookupStabilitySig:mean 	0.71418904513121
scalar Network.dyn_peer[339] 	lookupHopsSig:mean 	23
scalar Network.dyn_peer[340] 	lookupTimeSig:mean 	2.225
scalar Network.dyn_peer[340] 	lookupStabilitySig:mean 	0.9361771333497
scalar Network.dyn_peer[340] 	lookupHopsSig:mean 	21.375
scalar Network.dyn_peer[341] 	lookupTimeSig:mean 	0.92857142857143
scalar Network.dyn_peer[341] 	lookupStabilitySig:mean 	0.75762158898371
scalar Network.dyn_peer[341] 	lookupHopsSig:mean 	8.4285714285714
scalar Network.dyn_peer[342] 	lookupTimeSig:mean 	1.5181818181818
scalar Network.dyn_peer[342] 	lookupStabilitySig:mean 	0.82237099242312
scalar Network.dyn_peer[342] 	lookupHopsSig:mean 	14.272727272727
scalar Network.dyn_peer[343] 	lookupTimeSig:mean 	2.2125
scalar Network.dyn_peer[343] 	lookupStabilitySig:mean 	0.92235459893709
scalar Network.dyn_peer[343] 	lookupHopsSig:mean 	21.25
scalar Network.dyn_peer[344] 	lookupTimeSig:mean 	4.1
scalar Network.dyn_peer[344] 	lookupStabilitySig:mean 	0.53402346372604
scalar Network.dyn_peer[344] 	lookupHopsSig:mean 	40.5
scalar Network.dyn_peer[345] 	lookupTimeSig:mean 	1.64
scalar Network.dyn_peer[345] 	lookupStabilitySig:mean 	0.68395193219185
scalar Network.dyn_peer[345] 	lookupHopsSig:mean 	15.6
scalar Network.dyn_peer[346] 	lookupTimeSig:mean 	2.42
scalar Network.dyn_peer[346] 	lookupStabilitySig:mean 	0.67247274070978
scalar Network.dyn_peer[346] 	lookupHopsSig:mean 	23.4
scalar Network.dyn_peer[347] 	lookupTimeSig:mean 	2.475
scalar Network.dyn_peer[347] 	lookupStabilitySig:mean 	0.36043838970363
scalar Network.dyn_peer[347] 	lookupHopsSig:mean 	24
scalar Network.dyn_peer[348] 	lookupTimeSig:mean 	1.3125
scalar Network.dyn_peer[348] 	lookupStabilitySig:mean 	0.72849588934332
scalar Network.dyn_peer[348] 	lookupHopsSig:mean 	12.25
scalar Network.dyn_peer[349] 	lookupTimeSig:mean 	2.3375
scalar Network.dyn_peer[349] 	lookupStabilitySig:mean 	0.88159749866463
scalar Network.dyn_peer[349] 	lookupHopsSig:mean 	22.5
scalar Network.dyn_peer[350] 	lookupTimeSig:mean 	1.86
scalar Network.dyn_peer[350] 	lookupStabilitySig:mean 	0.44776051752269
scalar Network.dyn_peer[350] 	lookupHopsSig:mean 	17.8
scalar Network.dyn_peer[351] 	lookupTimeSig:mean 	1.25
scalar Network.dyn_peer[351] 	lookupStabilitySig:mean 	0.30367897171527
scalar Network.dyn_peer[351] 	lookupHopsSig:mean 	11.75
scalar Network.dyn_peer[352] 	lookupTimeSig:mean 	1.6428571428571
scalar Network.dyn_peer[352] 	lookupStabilitySig:mean 	0.6000200645732
scalar Network.dyn_peer[352] 	lookupHopsSig:mean 	15.571428571429
scalar Network.dyn_peer[353] 	lookupTimeSig:mean 	2.4714285714286
scalar Network.dyn_peer[353] 	lookupStabilitySig:mean 	0.90879382951451
scalar Network.dyn_peer[353] 	lookupHopsSig:mean 	23.857142857143
scalar Network.dyn_peer[354] 	lookupTimeSig:mean 	2.1
scalar Network.dyn_peer[354] 	lookupStabilitySig:mean 	0.76145747862756
scalar Network.dyn_peer[354] 	lookupHopsSig:mean 	20.25
scalar Network.dyn_peer[355] 	lookupTimeSig:mean 	2.0666666666667
scalar Network.dyn_peer[355] 	lookupStabilitySig:mean 	0.65044339870413
scalar Network.dyn_peer[355] 	lookupHopsSig:mean 	20
scalar Network.dyn_peer[356] 	lookupTimeSig:mean 	1.68
scalar Network.dyn_peer[356] 	lookupStabilitySig:mean 	0.54714285507798
scalar Network.dyn_peer[356] 	lookupHopsSig:mean 	16
scalar Network.dyn_peer[357] 	lookupTimeSig:mean 	1.59
scalar Network.dyn_peer[357] 	lookupStabilitySig:mean 	0.72201817310415
scalar Network.dyn_peer[357] 	lookupHopsSig:mean 	15
scalar Network.dyn_peer[358] 	lookupTimeSig:mean 	1.6166666666667
scalar Network.dyn_peer[358] 	lookupStabilitySig:mean 	0.69620863969127
scalar Network.dyn_peer[358] 	lookupHopsSig:mean 	15.333333333333
scalar Network.dyn_peer[359] 	lookupTimeSig:mean 	3.1
scalar Network.dyn_peer[359] 	lookupStabilitySig:mean 	0.42965616099536
scalar Network.dyn_peer[359] 	lookupHopsSig:mean 	30.25
scalar Network.dyn_peer[360] 	lookupTimeSig:mean 	1.8272727272727
scalar Network.dyn_peer[360] 	lookupStabilitySig:mean 	0.73637024160813
scalar Network.dyn_peer[360] 	lookupHopsSig:mean 	17.363636363636
scalar Network.dyn_peer[361] 	lookupTimeSig:mean 	1.1857142857143
scalar Network.dyn_peer[361] 	lookupStabilitySig:mean 	0.7891542121901
scalar Network.dyn_peer[361] 	lookupHopsSig:mean 	11
scalar Network.dyn_peer[362] 	lookupTimeSig:mean 	1.4333333333333
scalar Network.dyn_peer[362] 	lookupStabilitySig:mean 	0.96908885999583
scalar Network.dyn_peer[362] 	lookupHopsSig:mean 	13.4
scalar Network.dyn_peer[363] 	lookupTimeSig:mean 	2.0571428571429
scalar Network.dyn_peer[363] 	lookupStabilitySig:mean 	0.92295572228198
scalar Network.dyn_peer[363] 	lookupHopsSig:mean 	19.714285714286
scalar Network.dyn_peer[364] 	lookupTimeSig:mean 	2.8571428571429
scalar Network.dyn_peer[364] 	lookupStabilitySig:mean 	0.93880320140826
scalar Network.dyn_peer[364] 	lookupHopsSig:mean 	27.714285714286
scalar Network.dyn_peer[365] 	lookupTimeSig:mean 	1.275
scalar Network.dyn_peer[365] 	lookupStabilitySig:mean 	0.47912263590842
scalar Network.dyn_peer[365] 	lookupHopsSig:mean 	12
scalar Network.dyn_peer[366] 	lookupTimeSig:mean 	2.4666666666667
scalar Network.dyn_peer[366] 	lookupStabilitySig:mean 	0.76562390228113
scalar Network.dyn_peer[366] 	lookupHopsSig:mean 	24
scalar Network.dyn_peer[367] 	lookupTimeSig:mean 	2.0428571428571
scalar Network.dyn_peer[367] 	lookupStabilitySig:mean 	0.93904569399144
scalar Network.dyn_peer[367] 	lookupHopsSig:mean 	19.571428571429
scalar Network.dyn_peer[368] 	lookupTimeSig:mean 	1.8666666666667
scalar Network.dyn_peer[368] 	lookupStabilitySig:mean 	0.31878159940243
scalar Network.dyn_peer[368] 	lookupHopsSig:mean 	18
scalar Network.dyn_peer[369] 	lookupTimeSig:mean 	1.925
scalar Network.dyn_peer[369] 	lookupStabilitySig:mean 	0.29265342466533
scalar Network.dyn_peer[369] 	lookupHopsSig:mean 	18.5
scalar Network.dyn_peer[370] 	lookupTimeSig:mean 	0.76666666666667
scalar Network.dyn_peer[370] 	lookupStabilitySig:mean 	0.5513614192605
scalar Network.dyn_peer[370] 	lookupHopsSig:mean 	6.8333333333333
scalar Network.dyn_peer[371] 	lookupTimeSig:mean 	0.86
scalar Network.dyn_peer[371] 	lookupStabilitySig:mean 	0.42137853354216
scalar Network.dyn_peer[371] 	lookupHopsSig:mean 	7.8
scalar Network.dyn_peer[372] 	lookupTimeSig:mean 	2.4833333333333
scalar Network.dyn_peer[372] 	lookupStabilitySig:mean 	0.88332747388631
scalar Network.dyn_peer[372] 	lookupHopsSig:mean 	24
scalar Network.dyn_peer[373] 	lookupTimeSig:mean 	3.1666666666667
scalar Network.dyn_peer[373] 	lookupStabilitySig:mean 	0.40285283327103
scalar Network.dyn_peer[373] 	lookupHopsSig:mean 	31
scalar Network.dyn_peer[374] 	lookupTimeSig:mean 	1.65
scalar Network.dyn_peer[374] 	lookupStabilitySig:mean 	0.59189277794212
scalar Network.dyn_peer[374] 	lookupHopsSig:mean 	15.75
scalar Network.dyn_peer[375] 	lookupTimeSig:mean 	2.3166666666667
scalar Network.dyn_peer[375] 	lookupStabilitySig:mean 	0.88902974718561
scalar Network.dyn_peer[375] 	lookupHopsSig:mean 	22.333333333333
scalar Network.dyn_peer[376] 	lookupTimeSig:mean 	2.35
scalar Network.dyn_peer[376] 	lookupStabilitySig:mean 	0.67910700663924
scalar Network.dyn_peer[376] 	lookupHopsSig:mean 	22.75
scalar Network.dyn_peer[377] 	lookupTimeSig:mean 	1.8416666666667
scalar Network.dyn_peer[377] 	lookupStabilitySig:mean 	0.97179131799688
scalar Network.dyn_peer[377] 	lookupHopsSig:mean 	17.5
scalar Network.dyn_peer[378] 	lookupTimeSig:mean 	2.45
scalar Network.dyn_peer[378] 	lookupStabilitySig:mean 	0.73908059485257
scalar Network.dyn_peer[378] 	lookupHopsSig:mean 	23.75
scalar Network.dyn_peer[379] 	lookupTimeSig:mean 	2.275
scalar Network.dyn_peer[379] 	lookupStabilitySig:mean 	0.88382965803612
scalar Network.dyn_peer[379] 	lookupHopsSig:mean 	21.875
scalar Network.dyn_peer[380] 	lookupTimeSig:mean 	1.5
scalar Network.dyn_peer[380] 	lookupStabilitySig:mean 	0.51334945857525
scalar Network.dyn_peer[380] 	lookupHopsSig:mean 	14.333333333333
scalar Network.dyn_peer[381] 	lookupTimeSig:mean 	1.78
scalar Network.dyn_peer[381] 	lookupStabilitySig:mean 	0.46311706453562
scalar Network.dyn_peer[381] 	lookupHopsSig:mean 	17
scalar Network.dyn_peer[382] 	lookupTimeSig:mean 	1.8125
scalar Network.dyn_peer[382] 	lookupStabilitySig:mean 	0.85379486903548
scalar Network.dyn_peer[382] 	lookupHopsSig:mean 	17.25
scalar Network.dyn_peer[383] 	lookupTimeSig:mean 	2.02
scalar Network.dyn_peer[383] 	lookupStabilitySig:mean 	0.67746179178357
scalar Network.dyn_peer[383] 	lookupHopsSig:mean 	19.4
scalar Network.dyn_peer[384] 	lookupTimeSig:mean 	1.5125
scalar Network.dyn_peer[384] 	lookupStabilitySig:mean 	0.69982179906219
scalar Network.dyn_peer[384] 	lookupHopsSig:mean 	14.25
scalar Network.dyn_peer[385] 	lookupTimeSig:mean 	1.5666666666667
scalar Network.dyn_peer[385] 	lookupStabilitySig:mean 	0.86028465488926
scalar Network.dyn_peer[385] 	lookupHopsSig:mean 	14.777777777778
scalar Network.dyn_peer[386] 	lookupTimeSig:mean 	2.3
scalar Network.dyn_peer[386] 	lookupStabilitySig:mean 	0.84461052343249
scalar Network.dyn_peer[386] 	lookupHopsSig:mean 	22.2
scalar Network.dyn_peer[387] 	lookupTimeSig:mean 	2.65
scalar Network.dyn_peer[387] 	lookupStabilitySig:mean 	0.52537313103676
scalar Network.dyn_peer[387] 	lookupHopsSig:mean 	26
scalar Network.dyn_peer[388] 	lookupTimeSig:mean 	1.6625
scalar Network.dyn_peer[388] 	lookupStabilitySig:mean 	0.91756305459421
scalar Network.dyn_peer[388] 	lookupHopsSig:mean 	15.75
scalar Network.dyn_peer[389] 	lookupTimeSig:mean 	3.15
scalar Network.dyn_peer[389] 	lookupStabilitySig:mean 	0.5567961037159
scalar Network.dyn_peer[389] 	lookupHopsSig:mean 	31
scalar Network.dyn_peer[390] 	lookupTimeSig:mean 	2.4
scalar Network.dyn_peer[390] 	lookupStabilitySig:mean 	0.73470973875374
scalar Network.dyn_peer[390] 	lookupHopsSig:mean 	23.25
scalar Network.dyn_peer[391] 	lookupTimeSig:mean 	1.05
scalar Network.dyn_peer[391] 	lookupStabilitySig:mean 	0.42244834732264
scalar Network.dyn_peer[391] 	lookupHopsSig:mean 	9.75
scalar Network.dyn_peer[392] 	lookupTimeSig:mean 	2.34
scalar Network.dyn_peer[392] 	lookupStabilitySig:mean 	0.78268897011876
scalar Network.dyn_peer[392] 	lookupHopsSig:mean 	22.6
scalar Network.dyn_peer[393] 	lookupTimeSig:mean 	1.85
scalar Network.dyn_peer[393] 	lookupStabilitySig:mean 	0.87001898659704
scalar Network.dyn_peer[393] 	lookupHopsSig:mean 	17.583333333333
scalar Network.dyn_peer[394] 	lookupTimeSig:mean 	1.35
scalar Network.dyn_peer[394] 	lookupStabilitySig:mean 	0.39384153671563
scalar Network.dyn_peer[394] 	lookupHopsSig:mean 	12.75
scalar Network.dyn_peer[395] 	lookupTimeSig:mean 	1.8375
scalar Network.dyn_peer[395] 	lookupStabilitySig:mean 	0.79224734118907
scalar Network.dyn_peer[395] 	lookupHopsSig:mean 	17.5
scalar Network.dyn_peer[396] 	lookupTimeSig:mean 	1.525
scalar Network.dyn_peer[396] 	lookupStabilitySig:mean 	0.58130711317062
scalar Network.dyn_peer[396] 	lookupHopsSig:mean 	14.5
scalar Network.dyn_peer[397] 	lookupTimeSig:mean 	3
scalar Network.dyn_peer[397] 	lookupStabilitySig:mean 	0.62575615694125
scalar Network.dyn_peer[397] 	lookupHopsSig:mean 	29.333333333333
scalar Network.dyn_peer[398] 	lookupTimeSig:mean 	0.95714285714286
scalar Network.dyn_peer[398] 	lookupStabilitySig:mean 	0.60886713556413
scalar Network.dyn_peer[398] 	lookupHopsSig:mean 	8.7142857142857
scalar Network.dyn_peer[399] 	lookupTimeSig:mean 	2.7916666666667
scalar Network.dyn_peer[399] 	lookupStabilitySig:mean 	0.96296905190684
scalar Network.dyn_peer[399] 	lookupHopsSig:mean 	27
scalar Network.dyn_peer[400] 	lookupTimeSig:mean 	2.6333333333333
scalar Network.dyn_peer[400] 	lookupStabilitySig:mean 	0.46476619442304
scalar Network.dyn_peer[400] 	lookupHopsSig:mean 	25.666666666667
scalar Network.dyn_peer[401] 	lookupTimeSig:mean 	1.46
scalar Network.dyn_peer[401] 	lookupStabilitySig:mean 	0.79618089944124
scalar Network.dyn_peer[401] 	lookupHopsSig:mean 	13.8
scalar Network.dyn_peer[402] 	lookupTimeSig:mean 	3.8
scalar Network.dyn_peer[402] 	lookupStabilitySig:mean 	0.49660634249449
scalar Network.dyn_peer[402] 	lookupHopsSig:mean 	37.5
scalar Network.dyn_peer[403] 	lookupTimeSig:mean 	1.4866666666667
scalar Network.dyn_peer[403] 	lookupStabilitySig:mean 	0.96339343665168
scalar Network.dyn_peer[403] 	lookupHopsSig:mean 	13.933333333333
scalar Network.dyn_peer[404] 	lookupTimeSig:mean 	1.7
scalar Network.dyn_peer[404] 	lookupStabilitySig:mean 	0.93721434693517
scalar Network.dyn_peer[404] 	lookupHopsSig:mean 	16.142857142857
scalar Network.dyn_peer[405] 	lookupTimeSig:mean 	2.42
scalar Network.dyn_peer[405] 	lookupStabilitySig:mean 	0.65686441808939
scalar Network.dyn_peer[405] 	lookupHopsSig:mean 	23.4
scalar Network.dyn_peer[406] 	lookupTimeSig:mean 	2.1714285714286
scalar Network.dyn_peer[406] 	lookupStabilitySig:mean 	0.93018811714969
scalar Network.dyn_peer[406] 	lookupHopsSig:mean 	20.857142857143
scalar Network.dyn_peer[407] 	lookupTimeSig:mean 	2.5333333333333
scalar Network.dyn_peer[407] 	lookupStabilitySig:mean 	0.51214008778334
scalar Network.dyn_peer[407] 	lookupHopsSig:mean 	24.666666666667
scalar Network.dyn_peer[408] 	lookupTimeSig:mean 	1.85
scalar Network.dyn_peer[408] 	lookupStabilitySig:mean 	0.53254497610033
scalar Network.dyn_peer[408] 	lookupHopsSig:mean 	17.75
scalar Network.dyn_peer[409] 	lookupTimeSig:mean 	1.26
scalar Network.dyn_peer[409] 	lookupStabilitySig:mean 	0.8176093634218
scalar Network.dyn_peer[409] 	lookupHopsSig:mean 	11.8
scalar Network.dyn_peer[410] 	lookupTimeSig:mean 	2.175
scalar Network.dyn_peer[410] 	lookupStabilitySig:mean 	0.65491597168148
scalar Network.dyn_peer[410] 	lookupHopsSig:mean 	21
scalar Network.dyn_peer[411] 	lookupTimeSig:mean 	2.1833333333333
scalar Network.dyn_peer[411] 	lookupStabilitySig:mean 	0.96650738323418
scalar Network.dyn_peer[411] 	lookupHopsSig:mean 	20.916666666667
scalar Network.dyn_peer[412] 	lookupTimeSig:mean 	1.4
scalar Network.dyn_peer[412] 	lookupStabilitySig:mean 	0.87152270274237
scalar Network.dyn_peer[412] 	lookupHopsSig:mean 	13.166666666667
scalar Network.dyn_peer[413] 	lookupTimeSig:mean 	1.89
scalar Network.dyn_peer[413] 	lookupStabilitySig:mean 	0.96220232623164
scalar Network.dyn_peer[413] 	lookupHopsSig:mean 	18
scalar Network.dyn_peer[414] 	lookupTimeSig:mean 	2.0166666666667
scalar Network.dyn_peer[414] 	lookupStabilitySig:mean 	0.88771103912344
scalar Network.dyn_peer[414] 	lookupHopsSig:mean 	19.333333333333
scalar Network.dyn_peer[415] 	lookupTimeSig:mean 	2.72
scalar Network.dyn_peer[415] 	lookupStabilitySig:mean 	0.54601130937226
scalar Network.dyn_peer[415] 	lookupHopsSig:mean 	26.4
scalar Network.dyn_peer[416] 	lookupTimeSig:mean 	1.3875
scalar Network.dyn_peer[416] 	lookupStabilitySig:mean 	0.91424181783805
scalar Network.dyn_peer[416] 	lookupHopsSig:mean 	13
scalar Network.dyn_peer[417] 	lookupTimeSig:mean 	1.72
scalar Network.dyn_peer[417] 	lookupStabilitySig:mean 	0.80934076653793
scalar Network.dyn_peer[417] 	lookupHopsSig:mean 	16.4
scalar Network.dyn_peer[418] 	lookupTimeSig:mean 	1.1636363636364
scalar Network.dyn_peer[418] 	lookupStabilitySig:mean 	0.84873544869267
scalar Network.dyn_peer[418] 	lookupHopsSig:mean 	10.727272727273
scalar Network.dyn_peer[419] 	lookupTimeSig:mean 	2.2888888888889
scalar Network.dyn_peer[419] 	lookupStabilitySig:mean 	0.92408441565931
scalar Network.dyn_peer[419] 	lookupHopsSig:mean 	22
scalar Network.dyn_peer[420] 	lookupTimeSig:mean 	3.45
scalar Network.dyn_peer[420] 	lookupStabilitySig:mean 	0.76115171611309
scalar Network.dyn_peer[420] 	lookupHopsSig:mean 	34
scalar Network.dyn_peer[421] 	lookupTimeSig:mean 	1.6714285714286
scalar Network.dyn_peer[421] 	lookupStabilitySig:mean 	0.8748257798808
scalar Network.dyn_peer[421] 	lookupHopsSig:mean 	15.857142857143
[...]
scalar Network.dyn_peer[895] 	lookupTimeSig:mean 	1.7
scalar Network.dyn_peer[895] 	lookupStabilitySig:mean 	0.85164151825011
scalar Network.dyn_peer[895] 	lookupHopsSig:mean 	16.2
scalar Network.dyn_peer[896] 	lookupTimeSig:mean 	1.3142857142857
scalar Network.dyn_peer[896] 	lookupStabilitySig:mean 	0.86381008263145
scalar Network.dyn_peer[896] 	lookupHopsSig:mean 	12.285714285714
scalar Network.dyn_peer[897] 	lookupTimeSig:mean 	1.7
scalar Network.dyn_peer[897] 	lookupStabilitySig:mean 	0.86594217583271
scalar Network.dyn_peer[897] 	lookupHopsSig:mean 	16.142857142857
scalar Network.dyn_peer[898] 	lookupTimeSig:mean 	1.5333333333333
scalar Network.dyn_peer[898] 	lookupStabilitySig:mean 	0.80447624934216
scalar Network.dyn_peer[898] 	lookupHopsSig:mean 	14.5
scalar Network.dyn_peer[899] 	lookupTimeSig:mean 	2.45
scalar Network.dyn_peer[899] 	lookupStabilitySig:mean 	0.83565676709016
scalar Network.dyn_peer[899] 	lookupHopsSig:mean 	23.666666666667
scalar Network.dyn_peer[900] 	lookupTimeSig:mean 	1.5428571428571
scalar Network.dyn_peer[900] 	lookupStabilitySig:mean 	0.8572624674333
scalar Network.dyn_peer[900] 	lookupHopsSig:mean 	14.571428571429
scalar Network.dyn_peer[901] 	lookupTimeSig:mean 	3.7
scalar Network.dyn_peer[901] 	lookupStabilitySig:mean 	0.47173076868057
scalar Network.dyn_peer[901] 	lookupHopsSig:mean 	36.5
scalar Network.dyn_peer[902] 	lookupTimeSig:mean 	2.6
scalar Network.dyn_peer[902] 	lookupStabilitySig:mean 	0.59738954901695
scalar Network.dyn_peer[902] 	lookupHopsSig:mean 	25.5
scalar Network.dyn_peer[903] 	lookupTimeSig:mean 	1.325
scalar Network.dyn_peer[903] 	lookupStabilitySig:mean 	0.6838647890836
scalar Network.dyn_peer[903] 	lookupHopsSig:mean 	12.5
scalar Network.dyn_peer[904] 	lookupTimeSig:mean 	2.075
scalar Network.dyn_peer[904] 	lookupStabilitySig:mean 	0.66236372012645
scalar Network.dyn_peer[904] 	lookupHopsSig:mean 	20
scalar Network.dyn_peer[905] 	lookupTimeSig:mean 	1.95
scalar Network.dyn_peer[905] 	lookupStabilitySig:mean 	0.57215189933777
scalar Network.dyn_peer[905] 	lookupHopsSig:mean 	19
scalar Network.dyn_peer[906] 	lookupTimeSig:mean 	1.1375
scalar Network.dyn_peer[906] 	lookupStabilitySig:mean 	0.81800582818687
scalar Network.dyn_peer[906] 	lookupHopsSig:mean 	10.5
scalar Network.dyn_peer[907] 	lookupTimeSig:mean 	1.9
scalar Network.dyn_peer[907] 	lookupStabilitySig:mean 	0.7861661285162
scalar Network.dyn_peer[907] 	lookupHopsSig:mean 	18.2
scalar Network.dyn_peer[908] 	lookupTimeSig:mean 	1.6125
scalar Network.dyn_peer[908] 	lookupStabilitySig:mean 	0.88344141357811
scalar Network.dyn_peer[908] 	lookupHopsSig:mean 	15.25
scalar Network.dyn_peer[909] 	lookupTimeSig:mean 	2.1833333333333
scalar Network.dyn_peer[909] 	lookupStabilitySig:mean 	0.7817070002978
scalar Network.dyn_peer[909] 	lookupHopsSig:mean 	21
scalar Network.dyn_peer[910] 	lookupTimeSig:mean 	1.6111111111111
scalar Network.dyn_peer[910] 	lookupStabilitySig:mean 	0.83010573084984
scalar Network.dyn_peer[910] 	lookupHopsSig:mean 	15.222222222222
scalar Network.dyn_peer[911] 	lookupTimeSig:mean 	1.2
scalar Network.dyn_peer[911] 	lookupStabilitySig:mean 	0.71548822273811
scalar Network.dyn_peer[911] 	lookupHopsSig:mean 	11.333333333333
scalar Network.dyn_peer[912] 	lookupTimeSig:mean 	1.4333333333333
scalar Network.dyn_peer[912] 	lookupStabilitySig:mean 	0.7887811306864
scalar Network.dyn_peer[912] 	lookupHopsSig:mean 	13.444444444444
scalar Network.dyn_peer[913] 	lookupTimeSig:mean 	1.6666666666667
scalar Network.dyn_peer[913] 	lookupStabilitySig:mean 	0.67484989017248
scalar Network.dyn_peer[913] 	lookupHopsSig:mean 	16
scalar Network.dyn_peer[914] 	lookupTimeSig:mean 	3
scalar Network.dyn_peer[914] 	lookupStabilitySig:mean 	0.76497117802501
scalar Network.dyn_peer[914] 	lookupHopsSig:mean 	29.25
scalar Network.dyn_peer[915] 	lookupTimeSig:mean 	2.775
scalar Network.dyn_peer[915] 	lookupStabilitySig:mean 	0.87628539791331
scalar Network.dyn_peer[915] 	lookupHopsSig:mean 	27
scalar Network.dyn_peer[916] 	lookupTimeSig:mean 	2.1111111111111
scalar Network.dyn_peer[916] 	lookupStabilitySig:mean 	0.94571335551639
scalar Network.dyn_peer[916] 	lookupHopsSig:mean 	20.222222222222
scalar Network.dyn_peer[917] 	lookupTimeSig:mean 	1.46
scalar Network.dyn_peer[917] 	lookupStabilitySig:mean 	0.94385867323726
scalar Network.dyn_peer[917] 	lookupHopsSig:mean 	13.7
scalar Network.dyn_peer[918] 	lookupTimeSig:mean 	2.3666666666667
scalar Network.dyn_peer[918] 	lookupStabilitySig:mean 	0.81548868368069
scalar Network.dyn_peer[918] 	lookupHopsSig:mean 	23
scalar Network.dyn_peer[919] 	lookupTimeSig:mean 	2.1166666666667
scalar Network.dyn_peer[919] 	lookupStabilitySig:mean 	0.86748461518437
scalar Network.dyn_peer[919] 	lookupHopsSig:mean 	20.333333333333
scalar Network.dyn_peer[920] 	lookupTimeSig:mean 	1.5666666666667
scalar Network.dyn_peer[920] 	lookupStabilitySig:mean 	0.87772363967573
scalar Network.dyn_peer[920] 	lookupHopsSig:mean 	14.833333333333
scalar Network.dyn_peer[921] 	lookupTimeSig:mean 	1.4666666666667
scalar Network.dyn_peer[921] 	lookupStabilitySig:mean 	0.58007524907589
scalar Network.dyn_peer[921] 	lookupHopsSig:mean 	14
scalar Network.dyn_peer[922] 	lookupTimeSig:mean 	2.2833333333333
scalar Network.dyn_peer[922] 	lookupStabilitySig:mean 	0.94159783298771
scalar Network.dyn_peer[922] 	lookupHopsSig:mean 	22
scalar Network.dyn_peer[923] 	lookupTimeSig:mean 	1.0666666666667
scalar Network.dyn_peer[923] 	lookupStabilitySig:mean 	0.90175414908056
scalar Network.dyn_peer[923] 	lookupHopsSig:mean 	9.8333333333333
scalar Network.dyn_peer[924] 	lookupTimeSig:mean 	1.95
scalar Network.dyn_peer[924] 	lookupStabilitySig:mean 	0.67593534756452
scalar Network.dyn_peer[924] 	lookupHopsSig:mean 	18.75
scalar Network.dyn_peer[925] 	lookupTimeSig:mean 	1.5666666666667
scalar Network.dyn_peer[925] 	lookupStabilitySig:mean 	0.64867326865594
scalar Network.dyn_peer[925] 	lookupHopsSig:mean 	15
scalar Network.dyn_peer[926] 	lookupTimeSig:mean 	1.8666666666667
scalar Network.dyn_peer[926] 	lookupStabilitySig:mean 	0.58457692712545
scalar Network.dyn_peer[926] 	lookupHopsSig:mean 	18
scalar Network.dyn_peer[927] 	lookupTimeSig:mean 	3.3666666666667
scalar Network.dyn_peer[927] 	lookupStabilitySig:mean 	0.80868602047364
scalar Network.dyn_peer[927] 	lookupHopsSig:mean 	33
scalar Network.dyn_peer[928] 	lookupTimeSig:mean 	1.425
scalar Network.dyn_peer[928] 	lookupStabilitySig:mean 	0.84978520742152
scalar Network.dyn_peer[928] 	lookupHopsSig:mean 	13.375
scalar Network.dyn_peer[929] 	lookupTimeSig:mean 	2.02
scalar Network.dyn_peer[929] 	lookupStabilitySig:mean 	0.80617003235966
scalar Network.dyn_peer[929] 	lookupHopsSig:mean 	19.4
scalar Network.dyn_peer[930] 	lookupTimeSig:mean 	2.6333333333333
scalar Network.dyn_peer[930] 	lookupStabilitySig:mean 	0.56247164557377
scalar Network.dyn_peer[930] 	lookupHopsSig:mean 	25.666666666667
scalar Network.dyn_peer[931] 	lookupTimeSig:mean 	1.675
scalar Network.dyn_peer[931] 	lookupStabilitySig:mean 	0.6456936839968
scalar Network.dyn_peer[931] 	lookupHopsSig:mean 	16
scalar Network.dyn_peer[932] 	lookupTimeSig:mean 	1.16
scalar Network.dyn_peer[932] 	lookupStabilitySig:mean 	0.86690635532141
scalar Network.dyn_peer[932] 	lookupHopsSig:mean 	10.8
scalar Network.dyn_peer[933] 	lookupTimeSig:mean 	2.8666666666667
scalar Network.dyn_peer[933] 	lookupStabilitySig:mean 	0.74500575910012
scalar Network.dyn_peer[933] 	lookupHopsSig:mean 	28
scalar Network.dyn_peer[934] 	lookupTimeSig:mean 	1.5428571428571
scalar Network.dyn_peer[934] 	lookupStabilitySig:mean 	0.86179446934589
scalar Network.dyn_peer[934] 	lookupHopsSig:mean 	14.571428571429
scalar Network.dyn_peer[935] 	lookupTimeSig:mean 	2.78
scalar Network.dyn_peer[935] 	lookupStabilitySig:mean 	0.84102283604443
scalar Network.dyn_peer[935] 	lookupHopsSig:mean 	27
scalar Network.dyn_peer[936] 	lookupTimeSig:mean 	1.775
scalar Network.dyn_peer[936] 	lookupStabilitySig:mean 	0.56251090019941
scalar Network.dyn_peer[936] 	lookupHopsSig:mean 	17
scalar Network.dyn_peer[937] 	lookupTimeSig:mean 	2.275
scalar Network.dyn_peer[937] 	lookupStabilitySig:mean 	0.63142588548362
scalar Network.dyn_peer[937] 	lookupHopsSig:mean 	22
scalar Network.dyn_peer[938] 	lookupTimeSig:mean 	2.7666666666667
scalar Network.dyn_peer[938] 	lookupStabilitySig:mean 	0.69711947565277
scalar Network.dyn_peer[938] 	lookupHopsSig:mean 	27
scalar Network.dyn_peer[939] 	lookupTimeSig:mean 	3.5333333333333
scalar Network.dyn_peer[939] 	lookupStabilitySig:mean 	0.71596563855807
scalar Network.dyn_peer[939] 	lookupHopsSig:mean 	34.666666666667
scalar Network.dyn_peer[940] 	lookupTimeSig:mean 	1.4444444444444
scalar Network.dyn_peer[940] 	lookupStabilitySig:mean 	0.84567168220464
scalar Network.dyn_peer[940] 	lookupHopsSig:mean 	13.555555555556
scalar Network.dyn_peer[941] 	lookupTimeSig:mean 	2.38
scalar Network.dyn_peer[941] 	lookupStabilitySig:mean 	0.85292956978083
scalar Network.dyn_peer[941] 	lookupHopsSig:mean 	23
scalar Network.dyn_peer[942] 	lookupTimeSig:mean 	1.6428571428571
scalar Network.dyn_peer[942] 	lookupStabilitySig:mean 	0.92799600400031
scalar Network.dyn_peer[942] 	lookupHopsSig:mean 	15.571428571429
scalar Network.dyn_peer[943] 	lookupTimeSig:mean 	1.5714285714286
scalar Network.dyn_peer[943] 	lookupStabilitySig:mean 	0.80911426725132
scalar Network.dyn_peer[943] 	lookupHopsSig:mean 	14.857142857143
scalar Network.dyn_peer[944] 	lookupTimeSig:mean 	1.25
scalar Network.dyn_peer[944] 	lookupStabilitySig:mean 	0.64048946276307
scalar Network.dyn_peer[944] 	lookupHopsSig:mean 	11.75
scalar Network.dyn_peer[945] 	lookupTimeSig:mean 	1.8333333333333
scalar Network.dyn_peer[945] 	lookupStabilitySig:mean 	0.57712051520745
scalar Network.dyn_peer[945] 	lookupHopsSig:mean 	17.666666666667
scalar Network.dyn_peer[946] 	lookupTimeSig:mean 	3.04
scalar Network.dyn_peer[946] 	lookupStabilitySig:mean 	0.90641072615981
scalar Network.dyn_peer[946] 	lookupHopsSig:mean 	29.6
scalar Network.dyn_peer[947] 	lookupTimeSig:mean 	2.7833333333333
scalar Network.dyn_peer[947] 	lookupStabilitySig:mean 	0.93555815905953
scalar Network.dyn_peer[947] 	lookupHopsSig:mean 	27
scalar Network.dyn_peer[948] 	lookupTimeSig:mean 	2.1714285714286
scalar Network.dyn_peer[948] 	lookupStabilitySig:mean 	0.92960546485015
scalar Network.dyn_peer[948] 	lookupHopsSig:mean 	20.857142857143
scalar Network.dyn_peer[949] 	lookupTimeSig:mean 	1.4625
scalar Network.dyn_peer[949] 	lookupStabilitySig:mean 	0.80233920598403
scalar Network.dyn_peer[949] 	lookupHopsSig:mean 	13.75
scalar Network.dyn_peer[950] 	lookupTimeSig:mean 	2.18
scalar Network.dyn_peer[950] 	lookupStabilitySig:mean 	0.89236838035285
scalar Network.dyn_peer[950] 	lookupHopsSig:mean 	21
scalar Network.dyn_peer[951] 	lookupTimeSig:mean 	1.66
scalar Network.dyn_peer[951] 	lookupStabilitySig:mean 	0.85938195250928
scalar Network.dyn_peer[951] 	lookupHopsSig:mean 	15.8
scalar Network.dyn_peer[952] 	lookupTimeSig:mean 	2.15
scalar Network.dyn_peer[952] 	lookupStabilitySig:mean 	0.89430359844118
scalar Network.dyn_peer[952] 	lookupHopsSig:mean 	20.75
scalar Network.dyn_peer[953] 	lookupTimeSig:mean 	1.2
scalar Network.dyn_peer[953] 	lookupStabilitySig:mean 	0.61653521470726
scalar Network.dyn_peer[953] 	lookupHopsSig:mean 	11.25
scalar Network.dyn_peer[954] 	lookupTimeSig:mean 	1.7
scalar Network.dyn_peer[954] 	lookupStabilitySig:mean 	0.80177156886618
scalar Network.dyn_peer[954] 	lookupHopsSig:mean 	16.142857142857
scalar Network.dyn_peer[955] 	lookupTimeSig:mean 	0.96666666666667
scalar Network.dyn_peer[955] 	lookupStabilitySig:mean 	0.63425925311943
scalar Network.dyn_peer[955] 	lookupHopsSig:mean 	9
scalar Network.dyn_peer[956] 	lookupTimeSig:mean 	1.1333333333333
scalar Network.dyn_peer[956] 	lookupStabilitySig:mean 	0.46031745274862
scalar Network.dyn_peer[956] 	lookupHopsSig:mean 	10.666666666667
scalar Network.dyn_peer[957] 	lookupTimeSig:mean 	1.125
scalar Network.dyn_peer[957] 	lookupStabilitySig:mean 	0.68359132856131
scalar Network.dyn_peer[957] 	lookupHopsSig:mean 	10.5
scalar Network.dyn_peer[958] 	lookupTimeSig:mean 	3.0166666666667
scalar Network.dyn_peer[958] 	lookupStabilitySig:mean 	0.92431797180325
scalar Network.dyn_peer[958] 	lookupHopsSig:mean 	29.333333333333
scalar Network.dyn_peer[959] 	lookupTimeSig:mean 	3.3666666666667
scalar Network.dyn_peer[959] 	lookupStabilitySig:mean 	0.69581923633814
scalar Network.dyn_peer[959] 	lookupHopsSig:mean 	33
scalar Network.dyn_peer[960] 	lookupTimeSig:mean 	1.9
scalar Network.dyn_peer[960] 	lookupStabilitySig:mean 	0.91870560788084
scalar Network.dyn_peer[960] 	lookupHopsSig:mean 	18.125
scalar Network.dyn_peer[961] 	lookupTimeSig:mean 	2.3
scalar Network.dyn_peer[961] 	lookupStabilitySig:mean 	0.74463469535112
scalar Network.dyn_peer[961] 	lookupHopsSig:mean 	22.333333333333
scalar Network.dyn_peer[962] 	lookupTimeSig:mean 	1.88
scalar Network.dyn_peer[962] 	lookupStabilitySig:mean 	0.82825933191925
scalar Network.dyn_peer[962] 	lookupHopsSig:mean 	18
scalar Network.dyn_peer[963] 	lookupTimeSig:mean 	1.65
scalar Network.dyn_peer[963] 	lookupStabilitySig:mean 	0.90157206687145
scalar Network.dyn_peer[963] 	lookupHopsSig:mean 	15.6
scalar Network.dyn_peer[964] 	lookupTimeSig:mean 	1.2
scalar Network.dyn_peer[964] 	lookupStabilitySig:mean 	0.78221092248956
scalar Network.dyn_peer[964] 	lookupHopsSig:mean 	11.166666666667
scalar Network.dyn_peer[965] 	lookupTimeSig:mean 	2.3
scalar Network.dyn_peer[965] 	lookupStabilitySig:mean 	0.63021864090115
scalar Network.dyn_peer[965] 	lookupHopsSig:mean 	22.25
scalar Network.dyn_peer[966] 	lookupTimeSig:mean 	3.475
scalar Network.dyn_peer[966] 	lookupStabilitySig:mean 	0.91971464687958
scalar Network.dyn_peer[966] 	lookupHopsSig:mean 	34
scalar Network.dyn_peer[967] 	lookupTimeSig:mean 	2.29
scalar Network.dyn_peer[967] 	lookupStabilitySig:mean 	0.91294365185313
scalar Network.dyn_peer[967] 	lookupHopsSig:mean 	22
scalar Network.dyn_peer[968] 	lookupTimeSig:mean 	0.95
scalar Network.dyn_peer[968] 	lookupStabilitySig:mean 	0.43108974397182
scalar Network.dyn_peer[968] 	lookupHopsSig:mean 	9
scalar Network.dyn_peer[969] 	lookupTimeSig:mean 	4.2333333333333
scalar Network.dyn_peer[969] 	lookupStabilitySig:mean 	0.86993114898602
scalar Network.dyn_peer[969] 	lookupHopsSig:mean 	41.666666666667
scalar Network.dyn_peer[970] 	lookupTimeSig:mean 	1.5769230769231
scalar Network.dyn_peer[970] 	lookupStabilitySig:mean 	0.97081461536268
scalar Network.dyn_peer[970] 	lookupHopsSig:mean 	14.846153846154
scalar Network.dyn_peer[971] 	lookupTimeSig:mean 	2.4
scalar Network.dyn_peer[971] 	lookupStabilitySig:mean 	0.58291056752205
scalar Network.dyn_peer[971] 	lookupHopsSig:mean 	23.333333333333
scalar Network.dyn_peer[972] 	lookupTimeSig:mean 	2.2857142857143
scalar Network.dyn_peer[972] 	lookupStabilitySig:mean 	0.95343851723841
scalar Network.dyn_peer[972] 	lookupHopsSig:mean 	22
scalar Network.dyn_peer[973] 	lookupTimeSig:mean 	2.34
scalar Network.dyn_peer[973] 	lookupStabilitySig:mean 	0.81154261566699
scalar Network.dyn_peer[973] 	lookupHopsSig:mean 	22.6
scalar Network.dyn_peer[974] 	lookupTimeSig:mean 	2.475
scalar Network.dyn_peer[974] 	lookupStabilitySig:mean 	0.89899800671265
scalar Network.dyn_peer[974] 	lookupHopsSig:mean 	24
scalar Network.dyn_peer[975] 	lookupTimeSig:mean 	1.28
scalar Network.dyn_peer[975] 	lookupStabilitySig:mean 	0.91816790690646
scalar Network.dyn_peer[975] 	lookupHopsSig:mean 	11.9
scalar Network.dyn_peer[976] 	lookupTimeSig:mean 	1.2625
scalar Network.dyn_peer[976] 	lookupStabilitySig:mean 	0.79316499514971
scalar Network.dyn_peer[976] 	lookupHopsSig:mean 	11.75
scalar Network.dyn_peer[977] 	lookupTimeSig:mean 	2.725
scalar Network.dyn_peer[977] 	lookupStabilitySig:mean 	0.91266089910641
scalar Network.dyn_peer[977] 	lookupHopsSig:mean 	26.5
scalar Network.dyn_peer[978] 	lookupTimeSig:mean 	1.6
scalar Network.dyn_peer[978] 	lookupStabilitySig:mean 	0.684810183011
scalar Network.dyn_peer[978] 	lookupHopsSig:mean 	15.25
scalar Network.dyn_peer[979] 	lookupTimeSig:mean 	1.225
scalar Network.dyn_peer[979] 	lookupStabilitySig:mean 	0.59286891762167
scalar Network.dyn_peer[979] 	lookupHopsSig:mean 	11.5
scalar Network.dyn_peer[980] 	lookupTimeSig:mean 	2.1
scalar Network.dyn_peer[980] 	lookupStabilitySig:mean 	0.86185386643878
scalar Network.dyn_peer[980] 	lookupHopsSig:mean 	20.142857142857
scalar Network.dyn_peer[981] 	lookupTimeSig:mean 	2.1111111111111
scalar Network.dyn_peer[981] 	lookupStabilitySig:mean 	0.86472589936521
scalar Network.dyn_peer[981] 	lookupHopsSig:mean 	20.222222222222
scalar Network.dyn_peer[982] 	lookupTimeSig:mean 	2.36
scalar Network.dyn_peer[982] 	lookupStabilitySig:mean 	0.81573988460004
scalar Network.dyn_peer[982] 	lookupHopsSig:mean 	22.8
scalar Network.dyn_peer[983] 	lookupTimeSig:mean 	1.92
scalar Network.dyn_peer[983] 	lookupStabilitySig:mean 	0.72941883765161
scalar Network.dyn_peer[983] 	lookupHopsSig:mean 	18.4
scalar Network.dyn_peer[984] 	lookupTimeSig:mean 	2.825
scalar Network.dyn_peer[984] 	lookupStabilitySig:mean 	0.79001926351339
scalar Network.dyn_peer[984] 	lookupHopsSig:mean 	27.5
scalar Network.dyn_peer[985] 	lookupTimeSig:mean 	1.8555555555556
scalar Network.dyn_peer[985] 	lookupStabilitySig:mean 	0.89796133176424
scalar Network.dyn_peer[985] 	lookupHopsSig:mean 	17.666666666667
scalar Network.dyn_peer[986] 	lookupTimeSig:mean 	3.2666666666667
scalar Network.dyn_peer[986] 	lookupStabilitySig:mean 	0.75675945170224
scalar Network.dyn_peer[986] 	lookupHopsSig:mean 	32
scalar Network.dyn_peer[987] 	lookupTimeSig:mean 	1.2833333333333
scalar Network.dyn_peer[987] 	lookupStabilitySig:mean 	0.7838354902342
scalar Network.dyn_peer[987] 	lookupHopsSig:mean 	12
scalar Network.dyn_peer[988] 	lookupTimeSig:mean 	1.67
scalar Network.dyn_peer[988] 	lookupStabilitySig:mean 	0.85831173881888
scalar Network.dyn_peer[988] 	lookupHopsSig:mean 	15.8
scalar Network.dyn_peer[989] 	lookupTimeSig:mean 	2.6
scalar Network.dyn_peer[989] 	lookupStabilitySig:mean 	0.84795012958348
scalar Network.dyn_peer[989] 	lookupHopsSig:mean 	25.2
scalar Network.dyn_peer[990] 	lookupTimeSig:mean 	2
scalar Network.dyn_peer[990] 	lookupStabilitySig:mean 	0.87617382034659
scalar Network.dyn_peer[990] 	lookupHopsSig:mean 	19.166666666667
scalar Network.dyn_peer[991] 	lookupTimeSig:mean 	1.8454545454545
scalar Network.dyn_peer[991] 	lookupStabilitySig:mean 	0.94268624463373
scalar Network.dyn_peer[991] 	lookupHopsSig:mean 	17.545454545455
scalar Network.dyn_peer[992] 	lookupTimeSig:mean 	2.0333333333333
scalar Network.dyn_peer[992] 	lookupStabilitySig:mean 	0.60371492058039
scalar Network.dyn_peer[992] 	lookupHopsSig:mean 	19.666666666667
scalar Network.dyn_peer[993] 	lookupTimeSig:mean 	1.7333333333333
scalar Network.dyn_peer[993] 	lookupStabilitySig:mean 	0.52072249104579
scalar Network.dyn_peer[993] 	lookupHopsSig:mean 	16.666666666667
scalar Network.dyn_peer[994] 	lookupTimeSig:mean 	1.4090909090909
scalar Network.dyn_peer[994] 	lookupStabilitySig:mean 	0.88141091282225
scalar Network.dyn_peer[994] 	lookupHopsSig:mean 	13.181818181818
scalar Network.dyn_peer[995] 	lookupTimeSig:mean 	0.96
scalar Network.dyn_peer[995] 	lookupStabilitySig:mean 	0.69319176226854
scalar Network.dyn_peer[995] 	lookupHopsSig:mean 	8.8
scalar Network.dyn_peer[996] 	lookupTimeSig:mean 	3.4
scalar Network.dyn_peer[996] 	lookupStabilitySig:mean 	0.49090909212828
scalar Network.dyn_peer[996] 	lookupHopsSig:mean 	33.5
scalar Network.dyn_peer[997] 	lookupTimeSig:mean 	1.84
scalar Network.dyn_peer[997] 	lookupStabilitySig:mean 	0.85379010532051
scalar Network.dyn_peer[997] 	lookupHopsSig:mean 	17.6
scalar Network.dyn_peer[998] 	lookupTimeSig:mean 	1.625
scalar Network.dyn_peer[998] 	lookupStabilitySig:mean 	0.82081117667258
scalar Network.dyn_peer[998] 	lookupHopsSig:mean 	15.5
scalar Network.dyn_peer[999] 	lookupTimeSig:mean 	1.9
scalar Network.dyn_peer[999] 	lookupStabilitySig:mean 	0.79450991377234
scalar Network.dyn_peer[999] 	lookupHopsSig:mean 	18.25
scalar Network.churner 	inGoingSizeSig:mean 	499.000999001
