version 2
run Stability2-245-20130526-00:53:03-26640
attr configname Stability2
attr datetime 20130526-00:53:03
attr experiment Stability2
attr inifile omnetpp.ini
attr iterationvars $0=400
attr iterationvars2 "$0=400, $repetition=5"
attr measurement $0=400
attr network Network
attr processid 26640
attr repetition 5
attr replication #5
attr resultdir results
attr runnumber 245
attr seedset 245

scalar Network.dyn_peer[0] 	lookupTimeSig:mean 	0.55
scalar Network.dyn_peer[0] 	lookupStabilitySig:mean 	0.60682355115811
scalar Network.dyn_peer[0] 	lookupHopsSig:mean 	4.6666666666667
scalar Network.dyn_peer[1] 	lookupTimeSig:mean 	1.1272727272727
scalar Network.dyn_peer[1] 	lookupStabilitySig:mean 	0.78271833786064
scalar Network.dyn_peer[1] 	lookupHopsSig:mean 	10.363636363636
scalar Network.dyn_peer[2] 	lookupTimeSig:mean 	1.1
scalar Network.dyn_peer[2] 	lookupStabilitySig:mean 	0.45709851682186
scalar Network.dyn_peer[2] 	lookupHopsSig:mean 	10.2
scalar Network.dyn_peer[3] 	lookupTimeSig:mean 	1.025
scalar Network.dyn_peer[3] 	lookupStabilitySig:mean 	0.53723905980587
scalar Network.dyn_peer[3] 	lookupHopsSig:mean 	9.5
scalar Network.dyn_peer[4] 	lookupTimeSig:mean 	0.9
scalar Network.dyn_peer[4] 	lookupStabilitySig:mean 	0.38264410942793
scalar Network.dyn_peer[4] 	lookupHopsSig:mean 	8.25
scalar Network.dyn_peer[5] 	lookupTimeSig:mean 	1.3222222222222
scalar Network.dyn_peer[5] 	lookupStabilitySig:mean 	0.84592444739408
scalar Network.dyn_peer[5] 	lookupHopsSig:mean 	12.333333333333
scalar Network.dyn_peer[6] 	lookupTimeSig:mean 	1.625
scalar Network.dyn_peer[6] 	lookupStabilitySig:mean 	0.55262557417154
scalar Network.dyn_peer[6] 	lookupHopsSig:mean 	15.5
scalar Network.dyn_peer[7] 	lookupTimeSig:mean 	0.85
scalar Network.dyn_peer[7] 	lookupStabilitySig:mean 	0.6456886921078
scalar Network.dyn_peer[7] 	lookupHopsSig:mean 	7.6666666666667
scalar Network.dyn_peer[8] 	lookupTimeSig:mean 	3.35
scalar Network.dyn_peer[8] 	lookupStabilitySig:mean 	0.54249998927116
scalar Network.dyn_peer[8] 	lookupHopsSig:mean 	33
scalar Network.dyn_peer[9] 	lookupTimeSig:mean 	0.76666666666667
scalar Network.dyn_peer[9] 	lookupStabilitySig:mean 	0.58010377610723
scalar Network.dyn_peer[9] 	lookupHopsSig:mean 	6.8333333333333
scalar Network.dyn_peer[10] 	lookupTimeSig:mean 	0.575
scalar Network.dyn_peer[10] 	lookupStabilitySig:mean 	0.37017543800175
scalar Network.dyn_peer[10] 	lookupHopsSig:mean 	5
scalar Network.dyn_peer[11] 	lookupTimeSig:mean 	1.18
scalar Network.dyn_peer[11] 	lookupStabilitySig:mean 	0.57747709043324
scalar Network.dyn_peer[11] 	lookupHopsSig:mean 	11
scalar Network.dyn_peer[12] 	lookupTimeSig:mean 	1.15
scalar Network.dyn_peer[12] 	lookupStabilitySig:mean 	0.80480342116207
scalar Network.dyn_peer[12] 	lookupHopsSig:mean 	10.6
scalar Network.dyn_peer[13] 	lookupTimeSig:mean 	0.55
scalar Network.dyn_peer[13] 	lookupStabilitySig:mean 	0.3998366035521
scalar Network.dyn_peer[13] 	lookupHopsSig:mean 	4.75
scalar Network.dyn_peer[14] 	lookupTimeSig:mean 	1.4
scalar Network.dyn_peer[14] 	lookupStabilitySig:mean 	0.30869436015685
scalar Network.dyn_peer[14] 	lookupHopsSig:mean 	13.333333333333
scalar Network.dyn_peer[15] 	lookupTimeSig:mean 	1.475
scalar Network.dyn_peer[15] 	lookupStabilitySig:mean 	0.7334350394085
scalar Network.dyn_peer[15] 	lookupHopsSig:mean 	14
scalar Network.dyn_peer[16] 	lookupTimeSig:mean 	1.58
scalar Network.dyn_peer[16] 	lookupStabilitySig:mean 	0.72058306261897
scalar Network.dyn_peer[16] 	lookupHopsSig:mean 	15
scalar Network.dyn_peer[17] 	lookupTimeSig:mean 	1.0615384615385
scalar Network.dyn_peer[17] 	lookupStabilitySig:mean 	0.81925044352045
scalar Network.dyn_peer[17] 	lookupHopsSig:mean 	9.6923076923077
scalar Network.dyn_peer[18] 	lookupTimeSig:mean 	1.4181818181818
scalar Network.dyn_peer[18] 	lookupStabilitySig:mean 	0.89177111642097
scalar Network.dyn_peer[18] 	lookupHopsSig:mean 	13.272727272727
scalar Network.dyn_peer[19] 	lookupTimeSig:mean 	1.1714285714286
scalar Network.dyn_peer[19] 	lookupStabilitySig:mean 	0.6541478008564
scalar Network.dyn_peer[19] 	lookupHopsSig:mean 	10.857142857143
scalar Network.dyn_peer[20] 	lookupTimeSig:mean 	1.22
scalar Network.dyn_peer[20] 	lookupStabilitySig:mean 	0.49498873054981
scalar Network.dyn_peer[20] 	lookupHopsSig:mean 	11.4
scalar Network.dyn_peer[21] 	lookupTimeSig:mean 	1.175
scalar Network.dyn_peer[21] 	lookupStabilitySig:mean 	0.42546295002103
scalar Network.dyn_peer[21] 	lookupHopsSig:mean 	11
scalar Network.dyn_peer[22] 	lookupTimeSig:mean 	1.6666666666667
scalar Network.dyn_peer[22] 	lookupStabilitySig:mean 	0.82982326733569
scalar Network.dyn_peer[22] 	lookupHopsSig:mean 	15.833333333333
scalar Network.dyn_peer[23] 	lookupTimeSig:mean 	0.9875
scalar Network.dyn_peer[23] 	lookupStabilitySig:mean 	0.74216607492417
scalar Network.dyn_peer[23] 	lookupHopsSig:mean 	9
scalar Network.dyn_peer[24] 	lookupTimeSig:mean 	1.25
scalar Network.dyn_peer[24] 	lookupStabilitySig:mean 	0.62654654122889
scalar Network.dyn_peer[24] 	lookupHopsSig:mean 	11.75
scalar Network.dyn_peer[25] 	lookupTimeSig:mean 	1.08
scalar Network.dyn_peer[25] 	lookupStabilitySig:mean 	0.41810501217842
scalar Network.dyn_peer[25] 	lookupHopsSig:mean 	10
scalar Network.dyn_peer[26] 	lookupTimeSig:mean 	1.46
scalar Network.dyn_peer[26] 	lookupStabilitySig:mean 	0.67467831782997
scalar Network.dyn_peer[26] 	lookupHopsSig:mean 	13.8
scalar Network.dyn_peer[27] 	lookupTimeSig:mean 	1.1875
scalar Network.dyn_peer[27] 	lookupStabilitySig:mean 	0.73870701598935
scalar Network.dyn_peer[27] 	lookupHopsSig:mean 	11
scalar Network.dyn_peer[28] 	lookupTimeSig:mean 	1.1
scalar Network.dyn_peer[28] 	lookupStabilitySig:mean 	0.88316067773849
scalar Network.dyn_peer[28] 	lookupHopsSig:mean 	10.1
scalar Network.dyn_peer[29] 	lookupTimeSig:mean 	0.7
scalar Network.dyn_peer[29] 	lookupStabilitySig:mean 	0.55589742809534
scalar Network.dyn_peer[29] 	lookupHopsSig:mean 	6.2
scalar Network.dyn_peer[30] 	lookupTimeSig:mean 	1.2666666666667
scalar Network.dyn_peer[30] 	lookupStabilitySig:mean 	0.58774603034059
scalar Network.dyn_peer[30] 	lookupHopsSig:mean 	11.833333333333
scalar Network.dyn_peer[31] 	lookupTimeSig:mean 	2.6333333333333
scalar Network.dyn_peer[31] 	lookupStabilitySig:mean 	0.37168192366759
scalar Network.dyn_peer[31] 	lookupHopsSig:mean 	25.666666666667
scalar Network.dyn_peer[32] 	lookupTimeSig:mean 	1.2833333333333
scalar Network.dyn_peer[32] 	lookupStabilitySig:mean 	0.68749610272547
scalar Network.dyn_peer[32] 	lookupHopsSig:mean 	12
scalar Network.dyn_peer[33] 	lookupTimeSig:mean 	1.225
scalar Network.dyn_peer[33] 	lookupStabilitySig:mean 	0.84954842319712
scalar Network.dyn_peer[33] 	lookupHopsSig:mean 	11.375
scalar Network.dyn_peer[34] 	lookupTimeSig:mean 	1.0333333333333
scalar Network.dyn_peer[34] 	lookupStabilitySig:mean 	0.30199430882931
scalar Network.dyn_peer[34] 	lookupHopsSig:mean 	9.6666666666667
scalar Network.dyn_peer[35] 	lookupTimeSig:mean 	0.9
scalar Network.dyn_peer[35] 	lookupStabilitySig:mean 	0.17195765674114
scalar Network.dyn_peer[35] 	lookupHopsSig:mean 	8.3333333333333
scalar Network.dyn_peer[36] 	lookupTimeSig:mean 	1.1875
scalar Network.dyn_peer[36] 	lookupStabilitySig:mean 	0.69868572545238
scalar Network.dyn_peer[36] 	lookupHopsSig:mean 	11
scalar Network.dyn_peer[37] 	lookupTimeSig:mean 	0.8
scalar Network.dyn_peer[37] 	lookupStabilitySig:mean 	0.53260895013809
scalar Network.dyn_peer[37] 	lookupHopsSig:mean 	7.2
scalar Network.dyn_peer[38] 	lookupTimeSig:mean 	0.97777777777778
scalar Network.dyn_peer[38] 	lookupStabilitySig:mean 	0.74829185629884
scalar Network.dyn_peer[38] 	lookupHopsSig:mean 	8.8888888888889
scalar Network.dyn_peer[39] 	lookupTimeSig:mean 	1.4714285714286
scalar Network.dyn_peer[39] 	lookupStabilitySig:mean 	0.70007063874177
scalar Network.dyn_peer[39] 	lookupHopsSig:mean 	13.857142857143
scalar Network.dyn_peer[40] 	lookupTimeSig:mean 	1.25
scalar Network.dyn_peer[40] 	lookupStabilitySig:mean 	0.65371707485368
scalar Network.dyn_peer[40] 	lookupHopsSig:mean 	11.666666666667
scalar Network.dyn_peer[41] 	lookupTimeSig:mean 	1.3333333333333
scalar Network.dyn_peer[41] 	lookupStabilitySig:mean 	0.64910769291843
scalar Network.dyn_peer[41] 	lookupHopsSig:mean 	12.5
scalar Network.dyn_peer[42] 	lookupTimeSig:mean 	0.85
scalar Network.dyn_peer[42] 	lookupStabilitySig:mean 	0.37172364071012
scalar Network.dyn_peer[42] 	lookupHopsSig:mean 	7.75
scalar Network.dyn_peer[43] 	lookupTimeSig:mean 	1.5
scalar Network.dyn_peer[43] 	lookupStabilitySig:mean 	0.66167178217854
scalar Network.dyn_peer[43] 	lookupHopsSig:mean 	14.142857142857
scalar Network.dyn_peer[44] 	lookupTimeSig:mean 	1.2
scalar Network.dyn_peer[44] 	lookupStabilitySig:mean 	0.83193541294895
scalar Network.dyn_peer[44] 	lookupHopsSig:mean 	11.125
scalar Network.dyn_peer[45] 	lookupTimeSig:mean 	1.45
scalar Network.dyn_peer[45] 	lookupStabilitySig:mean 	0.87281295036276
scalar Network.dyn_peer[45] 	lookupHopsSig:mean 	13.666666666667
scalar Network.dyn_peer[46] 	lookupTimeSig:mean 	1.4
scalar Network.dyn_peer[46] 	lookupStabilitySig:mean 	0.66242988101606
scalar Network.dyn_peer[46] 	lookupHopsSig:mean 	13.142857142857
scalar Network.dyn_peer[47] 	lookupTimeSig:mean 	1.1857142857143
scalar Network.dyn_peer[47] 	lookupStabilitySig:mean 	0.64066563174129
scalar Network.dyn_peer[47] 	lookupHopsSig:mean 	11
scalar Network.dyn_peer[48] 	lookupTimeSig:mean 	1.05
scalar Network.dyn_peer[48] 	lookupStabilitySig:mean 	0.43738634884357
scalar Network.dyn_peer[48] 	lookupHopsSig:mean 	9.75
scalar Network.dyn_peer[49] 	lookupTimeSig:mean 	1.22
scalar Network.dyn_peer[49] 	lookupStabilitySig:mean 	0.54062336981297
scalar Network.dyn_peer[49] 	lookupHopsSig:mean 	11.4
scalar Network.dyn_peer[50] 	lookupTimeSig:mean 	2.5
scalar Network.dyn_peer[50] 	lookupStabilitySig:mean 	0.1360455006361
scalar Network.dyn_peer[50] 	lookupHopsSig:mean 	24.5
scalar Network.dyn_peer[51] 	lookupTimeSig:mean 	1.1
scalar Network.dyn_peer[51] 	lookupStabilitySig:mean 	0.055555567145348
scalar Network.dyn_peer[51] 	lookupHopsSig:mean 	10.5
scalar Network.dyn_peer[52] 	lookupTimeSig:mean 	1.3375
scalar Network.dyn_peer[52] 	lookupStabilitySig:mean 	0.73066327709239
scalar Network.dyn_peer[52] 	lookupHopsSig:mean 	12.5
scalar Network.dyn_peer[53] 	lookupTimeSig:mean 	1.6
scalar Network.dyn_peer[53] 	lookupStabilitySig:mean 	0.12887598574162
scalar Network.dyn_peer[53] 	lookupHopsSig:mean 	15.5
scalar Network.dyn_peer[54] 	lookupTimeSig:mean 	1.52
scalar Network.dyn_peer[54] 	lookupStabilitySig:mean 	0.56118245851249
scalar Network.dyn_peer[54] 	lookupHopsSig:mean 	14.4
scalar Network.dyn_peer[55] 	lookupTimeSig:mean 	2.1666666666667
scalar Network.dyn_peer[55] 	lookupStabilitySig:mean 	0.18591946860154
scalar Network.dyn_peer[55] 	lookupHopsSig:mean 	21
scalar Network.dyn_peer[56] 	lookupTimeSig:mean 	1.4
scalar Network.dyn_peer[56] 	lookupStabilitySig:mean 	0.70956343114376
scalar Network.dyn_peer[56] 	lookupHopsSig:mean 	13.2
scalar Network.dyn_peer[57] 	lookupTimeSig:mean 	1.26
scalar Network.dyn_peer[57] 	lookupStabilitySig:mean 	0.78600537963212
scalar Network.dyn_peer[57] 	lookupHopsSig:mean 	11.8
scalar Network.dyn_peer[58] 	lookupTimeSig:mean 	1.3666666666667
scalar Network.dyn_peer[58] 	lookupStabilitySig:mean 	0.62364823619525
scalar Network.dyn_peer[58] 	lookupHopsSig:mean 	13
scalar Network.dyn_peer[59] 	lookupTimeSig:mean 	0.825
scalar Network.dyn_peer[59] 	lookupStabilitySig:mean 	0.3843749910593
scalar Network.dyn_peer[59] 	lookupHopsSig:mean 	7.5
scalar Network.dyn_peer[60] 	lookupTimeSig:mean 	1.5166666666667
scalar Network.dyn_peer[60] 	lookupStabilitySig:mean 	0.78107254145046
scalar Network.dyn_peer[60] 	lookupHopsSig:mean 	14.333333333333
scalar Network.dyn_peer[61] 	lookupTimeSig:mean 	0.93333333333333
scalar Network.dyn_peer[61] 	lookupStabilitySig:mean 	0.72721184396909
scalar Network.dyn_peer[61] 	lookupHopsSig:mean 	8.4444444444444
scalar Network.dyn_peer[62] 	lookupTimeSig:mean 	1.825
scalar Network.dyn_peer[62] 	lookupStabilitySig:mean 	0.63460936024785
scalar Network.dyn_peer[62] 	lookupHopsSig:mean 	17.5
scalar Network.dyn_peer[63] 	lookupTimeSig:mean 	1.1444444444444
scalar Network.dyn_peer[63] 	lookupStabilitySig:mean 	0.8736566002222
scalar Network.dyn_peer[63] 	lookupHopsSig:mean 	10.555555555556
scalar Network.dyn_peer[64] 	lookupTimeSig:mean 	2.375
scalar Network.dyn_peer[64] 	lookupStabilitySig:mean 	0.81205787113868
scalar Network.dyn_peer[64] 	lookupHopsSig:mean 	23
scalar Network.dyn_peer[65] 	lookupTimeSig:mean 	1.3
scalar Network.dyn_peer[65] 	lookupStabilitySig:mean 	0.48433697968721
scalar Network.dyn_peer[65] 	lookupHopsSig:mean 	12.25
scalar Network.dyn_peer[66] 	lookupTimeSig:mean 	2.4
scalar Network.dyn_peer[66] 	lookupStabilitySig:mean 	0.40685096662492
scalar Network.dyn_peer[66] 	lookupHopsSig:mean 	23.25
scalar Network.dyn_peer[67] 	lookupTimeSig:mean 	1.64
scalar Network.dyn_peer[67] 	lookupStabilitySig:mean 	0.64752088338137
scalar Network.dyn_peer[67] 	lookupHopsSig:mean 	15.6
scalar Network.dyn_peer[68] 	lookupTimeSig:mean 	1.05
scalar Network.dyn_peer[68] 	lookupStabilitySig:mean 	0.3834381159395
scalar Network.dyn_peer[68] 	lookupHopsSig:mean 	9.75
scalar Network.dyn_peer[69] 	lookupTimeSig:mean 	0.95
scalar Network.dyn_peer[69] 	lookupStabilitySig:mean 	0.85703030007426
scalar Network.dyn_peer[69] 	lookupHopsSig:mean 	8.625
scalar Network.dyn_peer[70] 	lookupTimeSig:mean 	1.0333333333333
scalar Network.dyn_peer[70] 	lookupStabilitySig:mean 	0.36547618110975
scalar Network.dyn_peer[70] 	lookupHopsSig:mean 	9.6666666666667
scalar Network.dyn_peer[71] 	lookupTimeSig:mean 	0.97142857142857
scalar Network.dyn_peer[71] 	lookupStabilitySig:mean 	0.65660868851202
scalar Network.dyn_peer[71] 	lookupHopsSig:mean 	8.8571428571429
scalar Network.dyn_peer[72] 	lookupTimeSig:mean 	1.44
scalar Network.dyn_peer[72] 	lookupStabilitySig:mean 	0.61890529692173
scalar Network.dyn_peer[72] 	lookupHopsSig:mean 	13.6
scalar Network.dyn_peer[73] 	lookupTimeSig:mean 	1.3
scalar Network.dyn_peer[73] 	lookupStabilitySig:mean 	0.5758769698441
scalar Network.dyn_peer[73] 	lookupHopsSig:mean 	12.2
scalar Network.dyn_peer[74] 	lookupTimeSig:mean 	0.78888888888889
scalar Network.dyn_peer[74] 	lookupStabilitySig:mean 	0.77254945795155
scalar Network.dyn_peer[74] 	lookupHopsSig:mean 	7
scalar Network.dyn_peer[75] 	lookupTimeSig:mean 	1.25
scalar Network.dyn_peer[75] 	lookupStabilitySig:mean 	0.18269228935242
scalar Network.dyn_peer[75] 	lookupHopsSig:mean 	12
scalar Network.dyn_peer[76] 	lookupTimeSig:mean 	0.85
scalar Network.dyn_peer[76] 	lookupStabilitySig:mean 	0.60226140900825
scalar Network.dyn_peer[76] 	lookupHopsSig:mean 	7.6666666666667
scalar Network.dyn_peer[77] 	lookupTimeSig:mean 	2.125
scalar Network.dyn_peer[77] 	lookupStabilitySig:mean 	0.67992174159735
scalar Network.dyn_peer[77] 	lookupHopsSig:mean 	20.5
scalar Network.dyn_peer[78] 	lookupTimeSig:mean 	1.42
scalar Network.dyn_peer[78] 	lookupStabilitySig:mean 	0.62010752186179
scalar Network.dyn_peer[78] 	lookupHopsSig:mean 	13.4
scalar Network.dyn_peer[79] 	lookupTimeSig:mean 	0.77142857142857
scalar Network.dyn_peer[79] 	lookupStabilitySig:mean 	0.63939061122281
scalar Network.dyn_peer[79] 	lookupHopsSig:mean 	6.8571428571429
scalar Network.dyn_peer[80] 	lookupTimeSig:mean 	1.2875
scalar Network.dyn_peer[80] 	lookupStabilitySig:mean 	0.71909200865775
scalar Network.dyn_peer[80] 	lookupHopsSig:mean 	12
scalar Network.dyn_peer[81] 	lookupTimeSig:mean 	0.98
scalar Network.dyn_peer[81] 	lookupStabilitySig:mean 	0.83630978013389
scalar Network.dyn_peer[81] 	lookupHopsSig:mean 	8.9
scalar Network.dyn_peer[82] 	lookupTimeSig:mean 	1.2
scalar Network.dyn_peer[82] 	lookupStabilitySig:mean 	0.93104385470765
scalar Network.dyn_peer[82] 	lookupHopsSig:mean 	11.111111111111
scalar Network.dyn_peer[83] 	lookupTimeSig:mean 	0.94285714285714
scalar Network.dyn_peer[83] 	lookupStabilitySig:mean 	0.83895439867462
scalar Network.dyn_peer[83] 	lookupHopsSig:mean 	8.5714285714286
scalar Network.dyn_peer[84] 	lookupTimeSig:mean 	1.0857142857143
scalar Network.dyn_peer[84] 	lookupStabilitySig:mean 	0.71113004907966
scalar Network.dyn_peer[84] 	lookupHopsSig:mean 	10
scalar Network.dyn_peer[85] 	lookupTimeSig:mean 	3.3
scalar Network.dyn_peer[85] 	lookupStabilitySig:mean 	0.73919598013163
scalar Network.dyn_peer[85] 	lookupHopsSig:mean 	32.5
scalar Network.dyn_peer[86] 	lookupTimeSig:mean 	1.2714285714286
scalar Network.dyn_peer[86] 	lookupStabilitySig:mean 	0.76398933386164
scalar Network.dyn_peer[86] 	lookupHopsSig:mean 	11.857142857143
scalar Network.dyn_peer[87] 	lookupTimeSig:mean 	1.4666666666667
scalar Network.dyn_peer[87] 	lookupStabilitySig:mean 	0.3520287387073
scalar Network.dyn_peer[87] 	lookupHopsSig:mean 	14
scalar Network.dyn_peer[88] 	lookupTimeSig:mean 	1.325
scalar Network.dyn_peer[88] 	lookupStabilitySig:mean 	0.3442743178457
scalar Network.dyn_peer[88] 	lookupHopsSig:mean 	12.5
scalar Network.dyn_peer[89] 	lookupTimeSig:mean 	1.0666666666667
scalar Network.dyn_peer[89] 	lookupStabilitySig:mean 	0.37171718478203
scalar Network.dyn_peer[89] 	lookupHopsSig:mean 	10
scalar Network.dyn_peer[90] 	lookupTimeSig:mean 	0.975
scalar Network.dyn_peer[90] 	lookupStabilitySig:mean 	0.46222220733762
scalar Network.dyn_peer[90] 	lookupHopsSig:mean 	9
scalar Network.dyn_peer[91] 	lookupTimeSig:mean 	1.3
scalar Network.dyn_peer[91] 	lookupStabilitySig:mean 	0.71544964930841
scalar Network.dyn_peer[91] 	lookupHopsSig:mean 	12.142857142857
scalar Network.dyn_peer[92] 	lookupTimeSig:mean 	1.06
scalar Network.dyn_peer[92] 	lookupStabilitySig:mean 	0.84775286782533
scalar Network.dyn_peer[92] 	lookupHopsSig:mean 	9.7
scalar Network.dyn_peer[93] 	lookupTimeSig:mean 	1.8166666666667
scalar Network.dyn_peer[93] 	lookupStabilitySig:mean 	0.91311960419019
scalar Network.dyn_peer[93] 	lookupHopsSig:mean 	17.333333333333
scalar Network.dyn_peer[94] 	lookupTimeSig:mean 	1.3333333333333
scalar Network.dyn_peer[94] 	lookupStabilitySig:mean 	0.33172043164571
scalar Network.dyn_peer[94] 	lookupHopsSig:mean 	12.666666666667
scalar Network.dyn_peer[95] 	lookupTimeSig:mean 	1.1
scalar Network.dyn_peer[95] 	lookupStabilitySig:mean 	0.73993689659983
scalar Network.dyn_peer[95] 	lookupHopsSig:mean 	10.25
scalar Network.dyn_peer[96] 	lookupTimeSig:mean 	1.4
scalar Network.dyn_peer[96] 	lookupStabilitySig:mean 	0.72898550828298
scalar Network.dyn_peer[96] 	lookupHopsSig:mean 	13.333333333333
scalar Network.dyn_peer[97] 	lookupTimeSig:mean 	2.4666666666667
scalar Network.dyn_peer[97] 	lookupStabilitySig:mean 	0.28710309664408
scalar Network.dyn_peer[97] 	lookupHopsSig:mean 	24
scalar Network.dyn_peer[98] 	lookupTimeSig:mean 	1.3375
scalar Network.dyn_peer[98] 	lookupStabilitySig:mean 	0.75992668408435
scalar Network.dyn_peer[98] 	lookupHopsSig:mean 	12.5
scalar Network.dyn_peer[99] 	lookupTimeSig:mean 	1.05
scalar Network.dyn_peer[99] 	lookupStabilitySig:mean 	0.68314363900572
scalar Network.dyn_peer[99] 	lookupHopsSig:mean 	9.6666666666667
scalar Network.dyn_peer[100] 	lookupTimeSig:mean 	1.65
scalar Network.dyn_peer[100] 	lookupStabilitySig:mean 	0.079999998211861
scalar Network.dyn_peer[100] 	lookupHopsSig:mean 	16
scalar Network.dyn_peer[101] 	lookupTimeSig:mean 	3.25
scalar Network.dyn_peer[101] 	lookupStabilitySig:mean 	0.31445364654064
scalar Network.dyn_peer[101] 	lookupHopsSig:mean 	32
scalar Network.dyn_peer[102] 	lookupTimeSig:mean 	1.7333333333333
scalar Network.dyn_peer[102] 	lookupStabilitySig:mean 	0.79752864191929
scalar Network.dyn_peer[102] 	lookupHopsSig:mean 	16.666666666667
scalar Network.dyn_peer[103] 	lookupTimeSig:mean 	0.97272727272727
scalar Network.dyn_peer[103] 	lookupStabilitySig:mean 	0.77761270122772
scalar Network.dyn_peer[103] 	lookupHopsSig:mean 	8.8181818181818
scalar Network.dyn_peer[104] 	lookupTimeSig:mean 	1.48
scalar Network.dyn_peer[104] 	lookupStabilitySig:mean 	0.63151488006115
scalar Network.dyn_peer[104] 	lookupHopsSig:mean 	14
scalar Network.dyn_peer[105] 	lookupTimeSig:mean 	1.4
scalar Network.dyn_peer[105] 	lookupStabilitySig:mean 	0.7231188621372
scalar Network.dyn_peer[105] 	lookupHopsSig:mean 	13.142857142857
scalar Network.dyn_peer[106] 	lookupTimeSig:mean 	1.3857142857143
scalar Network.dyn_peer[106] 	lookupStabilitySig:mean 	0.6787571582411
scalar Network.dyn_peer[106] 	lookupHopsSig:mean 	13
scalar Network.dyn_peer[107] 	lookupTimeSig:mean 	2.3
scalar Network.dyn_peer[107] 	lookupStabilitySig:mean 	0.56491465121508
scalar Network.dyn_peer[107] 	lookupHopsSig:mean 	22.5
scalar Network.dyn_peer[108] 	lookupTimeSig:mean 	2.1
scalar Network.dyn_peer[108] 	lookupStabilitySig:mean 	0.12724015116692
scalar Network.dyn_peer[108] 	lookupHopsSig:mean 	20.5
scalar Network.dyn_peer[109] 	lookupTimeSig:mean 	1.32
scalar Network.dyn_peer[109] 	lookupStabilitySig:mean 	0.63231357112527
scalar Network.dyn_peer[109] 	lookupHopsSig:mean 	12.4
scalar Network.dyn_peer[110] 	lookupTimeSig:mean 	1.35
scalar Network.dyn_peer[110] 	lookupStabilitySig:mean 	-0.1741935312748
scalar Network.dyn_peer[110] 	lookupHopsSig:mean 	13
scalar Network.dyn_peer[111] 	lookupTimeSig:mean 	0.9
scalar Network.dyn_peer[111] 	lookupStabilitySig:mean 	0.45833333209157
scalar Network.dyn_peer[111] 	lookupHopsSig:mean 	8.25
scalar Network.dyn_peer[112] 	lookupTimeSig:mean 	1.15
scalar Network.dyn_peer[112] 	lookupStabilitySig:mean 	0.59408253058791
scalar Network.dyn_peer[112] 	lookupHopsSig:mean 	10.75
scalar Network.dyn_peer[113] 	lookupTimeSig:mean 	1.5666666666667
scalar Network.dyn_peer[113] 	lookupStabilitySig:mean 	0.37367033958435
scalar Network.dyn_peer[113] 	lookupHopsSig:mean 	15
scalar Network.dyn_peer[114] 	lookupTimeSig:mean 	1.6857142857143
scalar Network.dyn_peer[114] 	lookupStabilitySig:mean 	0.88893048491861
scalar Network.dyn_peer[114] 	lookupHopsSig:mean 	16
scalar Network.dyn_peer[115] 	lookupTimeSig:mean 	0.875
scalar Network.dyn_peer[115] 	lookupStabilitySig:mean 	0.49264763854444
scalar Network.dyn_peer[115] 	lookupHopsSig:mean 	8
scalar Network.dyn_peer[116] 	lookupTimeSig:mean 	1.5142857142857
scalar Network.dyn_peer[116] 	lookupStabilitySig:mean 	0.90073965582997
scalar Network.dyn_peer[116] 	lookupHopsSig:mean 	14.285714285714
scalar Network.dyn_peer[117] 	lookupTimeSig:mean 	0.77142857142857
scalar Network.dyn_peer[117] 	lookupStabilitySig:mean 	0.72472056214299
scalar Network.dyn_peer[117] 	lookupHopsSig:mean 	6.8571428571429
scalar Network.dyn_peer[118] 	lookupTimeSig:mean 	1
scalar Network.dyn_peer[118] 	lookupStabilitySig:mean 	0.56862286105752
scalar Network.dyn_peer[118] 	lookupHopsSig:mean 	9.2
scalar Network.dyn_peer[119] 	lookupTimeSig:mean 	1.4
scalar Network.dyn_peer[119] 	lookupStabilitySig:mean 	0.081818163394928
scalar Network.dyn_peer[119] 	lookupHopsSig:mean 	13.5
scalar Network.dyn_peer[120] 	lookupTimeSig:mean 	2
scalar Network.dyn_peer[120] 	lookupStabilitySig:mean 	0.21887548267841
scalar Network.dyn_peer[120] 	lookupHopsSig:mean 	19.5
scalar Network.dyn_peer[121] 	lookupTimeSig:mean 	1.06
scalar Network.dyn_peer[121] 	lookupStabilitySig:mean 	0.62673845365643
scalar Network.dyn_peer[121] 	lookupHopsSig:mean 	9.8
scalar Network.dyn_peer[122] 	lookupTimeSig:mean 	1.15
scalar Network.dyn_peer[122] 	lookupStabilitySig:mean 	0.50088684260845
scalar Network.dyn_peer[122] 	lookupHopsSig:mean 	10.75
scalar Network.dyn_peer[123] 	lookupTimeSig:mean 	2.1
scalar Network.dyn_peer[123] 	lookupStabilitySig:mean 	0.81098581850529
scalar Network.dyn_peer[123] 	lookupHopsSig:mean 	20.25
scalar Network.dyn_peer[124] 	lookupTimeSig:mean 	1.3777777777778
scalar Network.dyn_peer[124] 	lookupStabilitySig:mean 	0.80412036335717
scalar Network.dyn_peer[124] 	lookupHopsSig:mean 	12.888888888889
scalar Network.dyn_peer[125] 	lookupTimeSig:mean 	1.7
scalar Network.dyn_peer[125] 	lookupStabilitySig:mean 	0.66462638005614
scalar Network.dyn_peer[125] 	lookupHopsSig:mean 	16.2
scalar Network.dyn_peer[126] 	lookupTimeSig:mean 	1.25
scalar Network.dyn_peer[126] 	lookupStabilitySig:mean 	0.73630154528655
scalar Network.dyn_peer[126] 	lookupHopsSig:mean 	11.625
scalar Network.dyn_peer[127] 	lookupTimeSig:mean 	1.9333333333333
scalar Network.dyn_peer[127] 	lookupStabilitySig:mean 	0.4704121487836
scalar Network.dyn_peer[127] 	lookupHopsSig:mean 	18.666666666667
scalar Network.dyn_peer[128] 	lookupTimeSig:mean 	1.3
scalar Network.dyn_peer[128] 	lookupStabilitySig:mean 	0.45343986526132
scalar Network.dyn_peer[128] 	lookupHopsSig:mean 	12.25
scalar Network.dyn_peer[129] 	lookupTimeSig:mean 	1.0875
scalar Network.dyn_peer[129] 	lookupStabilitySig:mean 	0.81942918454297
scalar Network.dyn_peer[129] 	lookupHopsSig:mean 	10
scalar Network.dyn_peer[130] 	lookupTimeSig:mean 	1.8285714285714
scalar Network.dyn_peer[130] 	lookupStabilitySig:mean 	0.92235328656222
scalar Network.dyn_peer[130] 	lookupHopsSig:mean 	17.428571428571
scalar Network.dyn_peer[131] 	lookupTimeSig:mean 	1.3
scalar Network.dyn_peer[131] 	lookupStabilitySig:mean 	0.40977077931166
scalar Network.dyn_peer[131] 	lookupHopsSig:mean 	12.25
scalar Network.dyn_peer[132] 	lookupTimeSig:mean 	1.1555555555556
scalar Network.dyn_peer[132] 	lookupStabilitySig:mean 	0.87860428645379
scalar Network.dyn_peer[132] 	lookupHopsSig:mean 	10.666666666667
scalar Network.dyn_peer[133] 	lookupTimeSig:mean 	0.85714285714286
scalar Network.dyn_peer[133] 	lookupStabilitySig:mean 	0.85241268831305
scalar Network.dyn_peer[133] 	lookupHopsSig:mean 	7.6428571428571
scalar Network.dyn_peer[134] 	lookupTimeSig:mean 	0.93636363636364
scalar Network.dyn_peer[134] 	lookupStabilitySig:mean 	0.79190090705048
scalar Network.dyn_peer[134] 	lookupHopsSig:mean 	8.4545454545455
scalar Network.dyn_peer[135] 	lookupTimeSig:mean 	1.54
scalar Network.dyn_peer[135] 	lookupStabilitySig:mean 	0.93707662094384
scalar Network.dyn_peer[135] 	lookupHopsSig:mean 	14.5
scalar Network.dyn_peer[136] 	lookupTimeSig:mean 	1.4428571428571
scalar Network.dyn_peer[136] 	lookupStabilitySig:mean 	0.84584889933467
scalar Network.dyn_peer[136] 	lookupHopsSig:mean 	13.571428571429
scalar Network.dyn_peer[137] 	lookupTimeSig:mean 	0.96
scalar Network.dyn_peer[137] 	lookupStabilitySig:mean 	0.56485037058592
scalar Network.dyn_peer[137] 	lookupHopsSig:mean 	8.8
scalar Network.dyn_peer[138] 	lookupTimeSig:mean 	1.17
scalar Network.dyn_peer[138] 	lookupStabilitySig:mean 	0.83829437859822
scalar Network.dyn_peer[138] 	lookupHopsSig:mean 	10.8
scalar Network.dyn_peer[139] 	lookupTimeSig:mean 	0.99
scalar Network.dyn_peer[139] 	lookupStabilitySig:mean 	0.81762930480763
scalar Network.dyn_peer[139] 	lookupHopsSig:mean 	9
scalar Network.dyn_peer[140] 	lookupTimeSig:mean 	2.2
scalar Network.dyn_peer[140] 	lookupStabilitySig:mean 	0.22168283164501
scalar Network.dyn_peer[140] 	lookupHopsSig:mean 	21.5
scalar Network.dyn_peer[141] 	lookupTimeSig:mean 	0.625
scalar Network.dyn_peer[141] 	lookupStabilitySig:mean 	0.45587300881743
scalar Network.dyn_peer[141] 	lookupHopsSig:mean 	5.5
scalar Network.dyn_peer[142] 	lookupTimeSig:mean 	1.2666666666667
scalar Network.dyn_peer[142] 	lookupStabilitySig:mean 	0.78534673837324
scalar Network.dyn_peer[142] 	lookupHopsSig:mean 	11.777777777778
scalar Network.dyn_peer[143] 	lookupTimeSig:mean 	1.5833333333333
scalar Network.dyn_peer[143] 	lookupStabilitySig:mean 	0.61910662365456
scalar Network.dyn_peer[143] 	lookupHopsSig:mean 	15
scalar Network.dyn_peer[144] 	lookupTimeSig:mean 	1.45
scalar Network.dyn_peer[144] 	lookupStabilitySig:mean 	0.042471021413803
scalar Network.dyn_peer[144] 	lookupHopsSig:mean 	14
scalar Network.dyn_peer[145] 	lookupTimeSig:mean 	1.46
scalar Network.dyn_peer[145] 	lookupStabilitySig:mean 	0.61710483133793
scalar Network.dyn_peer[145] 	lookupHopsSig:mean 	13.8
scalar Network.dyn_peer[146] 	lookupTimeSig:mean 	1.1555555555556
scalar Network.dyn_peer[146] 	lookupStabilitySig:mean 	0.87086858207153
scalar Network.dyn_peer[146] 	lookupHopsSig:mean 	10.666666666667
scalar Network.dyn_peer[147] 	lookupTimeSig:mean 	0.925
scalar Network.dyn_peer[147] 	lookupStabilitySig:mean 	0.54309331811965
scalar Network.dyn_peer[147] 	lookupHopsSig:mean 	8.5
scalar Network.dyn_peer[148] 	lookupTimeSig:mean 	0.97
scalar Network.dyn_peer[148] 	lookupStabilitySig:mean 	0.70326991546899
scalar Network.dyn_peer[148] 	lookupHopsSig:mean 	8.8
scalar Network.dyn_peer[149] 	lookupTimeSig:mean 	0.9875
scalar Network.dyn_peer[149] 	lookupStabilitySig:mean 	0.85424521518871
scalar Network.dyn_peer[149] 	lookupHopsSig:mean 	9
scalar Network.dyn_peer[150] 	lookupTimeSig:mean 	1.8666666666667
scalar Network.dyn_peer[150] 	lookupStabilitySig:mean 	0.50997476031383
scalar Network.dyn_peer[150] 	lookupHopsSig:mean 	18
scalar Network.dyn_peer[151] 	lookupTimeSig:mean 	1.1375
scalar Network.dyn_peer[151] 	lookupStabilitySig:mean 	0.83923803782091
scalar Network.dyn_peer[151] 	lookupHopsSig:mean 	10.5
scalar Network.dyn_peer[152] 	lookupTimeSig:mean 	2
scalar Network.dyn_peer[152] 	lookupStabilitySig:mean 	0.2640442699194
scalar Network.dyn_peer[152] 	lookupHopsSig:mean 	19.333333333333
scalar Network.dyn_peer[153] 	lookupTimeSig:mean 	0.88333333333333
scalar Network.dyn_peer[153] 	lookupStabilitySig:mean 	0.73828363232315
scalar Network.dyn_peer[153] 	lookupHopsSig:mean 	8
scalar Network.dyn_peer[154] 	lookupTimeSig:mean 	2
scalar Network.dyn_peer[154] 	lookupStabilitySig:mean 	0.85415267944336
scalar Network.dyn_peer[154] 	lookupHopsSig:mean 	19.25
scalar Network.dyn_peer[155] 	lookupTimeSig:mean 	1.4666666666667
scalar Network.dyn_peer[155] 	lookupStabilitySig:mean 	0.89286910044029
scalar Network.dyn_peer[155] 	lookupHopsSig:mean 	13.833333333333
scalar Network.dyn_peer[156] 	lookupTimeSig:mean 	0.99166666666667
scalar Network.dyn_peer[156] 	lookupStabilitySig:mean 	0.81438927639586
scalar Network.dyn_peer[156] 	lookupHopsSig:mean 	9
scalar Network.dyn_peer[157] 	lookupTimeSig:mean 	2.7
scalar Network.dyn_peer[157] 	lookupStabilitySig:mean 	0.40822784602642
scalar Network.dyn_peer[157] 	lookupHopsSig:mean 	26.5
scalar Network.dyn_peer[158] 	lookupTimeSig:mean 	1.175
scalar Network.dyn_peer[158] 	lookupStabilitySig:mean 	0.53465943597257
scalar Network.dyn_peer[158] 	lookupHopsSig:mean 	11
scalar Network.dyn_peer[159] 	lookupTimeSig:mean 	1.7
scalar Network.dyn_peer[159] 	lookupStabilitySig:mean 	0.89618674945086
scalar Network.dyn_peer[159] 	lookupHopsSig:mean 	16.166666666667
scalar Network.dyn_peer[160] 	lookupTimeSig:mean 	1.24
scalar Network.dyn_peer[160] 	lookupStabilitySig:mean 	0.69757739007473
scalar Network.dyn_peer[160] 	lookupHopsSig:mean 	11.6
scalar Network.dyn_peer[161] 	lookupTimeSig:mean 	1.52
scalar Network.dyn_peer[161] 	lookupStabilitySig:mean 	0.69593245685101
scalar Network.dyn_peer[161] 	lookupHopsSig:mean 	14.4
scalar Network.dyn_peer[162] 	lookupTimeSig:mean 	1.2857142857143
scalar Network.dyn_peer[162] 	lookupStabilitySig:mean 	0.85570227833731
scalar Network.dyn_peer[162] 	lookupHopsSig:mean 	12
scalar Network.dyn_peer[163] 	lookupTimeSig:mean 	1.4
scalar Network.dyn_peer[163] 	lookupStabilitySig:mean 	0.41660479704539
scalar Network.dyn_peer[163] 	lookupHopsSig:mean 	13.333333333333
scalar Network.dyn_peer[164] 	lookupTimeSig:mean 	1.4
scalar Network.dyn_peer[164] 	lookupStabilitySig:mean 	0.88927630148828
scalar Network.dyn_peer[164] 	lookupHopsSig:mean 	13.142857142857
scalar Network.dyn_peer[165] 	lookupTimeSig:mean 	1.0909090909091
scalar Network.dyn_peer[165] 	lookupStabilitySig:mean 	0.78166253559969
scalar Network.dyn_peer[165] 	lookupHopsSig:mean 	10
scalar Network.dyn_peer[166] 	lookupTimeSig:mean 	1.1333333333333
scalar Network.dyn_peer[166] 	lookupStabilitySig:mean 	0.58715572456519
scalar Network.dyn_peer[166] 	lookupHopsSig:mean 	10.666666666667
scalar Network.dyn_peer[167] 	lookupTimeSig:mean 	2.8
scalar Network.dyn_peer[167] 	lookupStabilitySig:mean 	0.19278545677662
scalar Network.dyn_peer[167] 	lookupHopsSig:mean 	27.5
scalar Network.dyn_peer[168] 	lookupTimeSig:mean 	1.1444444444444
scalar Network.dyn_peer[168] 	lookupStabilitySig:mean 	0.79825019877818
scalar Network.dyn_peer[168] 	lookupHopsSig:mean 	10.555555555556
scalar Network.dyn_peer[169] 	lookupTimeSig:mean 	1.55
scalar Network.dyn_peer[169] 	lookupStabilitySig:mean 	0.56308741308749
scalar Network.dyn_peer[169] 	lookupHopsSig:mean 	14.75
scalar Network.dyn_peer[170] 	lookupTimeSig:mean 	0.9
scalar Network.dyn_peer[170] 	lookupStabilitySig:mean 	0.64057422578335
scalar Network.dyn_peer[170] 	lookupHopsSig:mean 	8.2
scalar Network.dyn_peer[171] 	lookupTimeSig:mean 	1.52
scalar Network.dyn_peer[171] 	lookupStabilitySig:mean 	0.78974862396717
scalar Network.dyn_peer[171] 	lookupHopsSig:mean 	14.4
scalar Network.dyn_peer[172] 	lookupTimeSig:mean 	3.05
scalar Network.dyn_peer[172] 	lookupStabilitySig:mean 	0.24999997019768
scalar Network.dyn_peer[172] 	lookupHopsSig:mean 	30
scalar Network.dyn_peer[173] 	lookupTimeSig:mean 	1.275
scalar Network.dyn_peer[173] 	lookupStabilitySig:mean 	0.40987684391439
scalar Network.dyn_peer[173] 	lookupHopsSig:mean 	12
scalar Network.dyn_peer[174] 	lookupTimeSig:mean 	1.4333333333333
scalar Network.dyn_peer[174] 	lookupStabilitySig:mean 	0.75510204086701
scalar Network.dyn_peer[174] 	lookupHopsSig:mean 	13.666666666667
scalar Network.dyn_peer[175] 	lookupTimeSig:mean 	1.3375
scalar Network.dyn_peer[175] 	lookupStabilitySig:mean 	0.85294620506465
scalar Network.dyn_peer[175] 	lookupHopsSig:mean 	12.5
scalar Network.dyn_peer[176] 	lookupTimeSig:mean 	1.1
scalar Network.dyn_peer[176] 	lookupStabilitySig:mean 	0.72949896327087
scalar Network.dyn_peer[176] 	lookupHopsSig:mean 	10.142857142857
scalar Network.dyn_peer[177] 	lookupTimeSig:mean 	1.32
scalar Network.dyn_peer[177] 	lookupStabilitySig:mean 	0.74808800891042
scalar Network.dyn_peer[177] 	lookupHopsSig:mean 	12.4
scalar Network.dyn_peer[178] 	lookupTimeSig:mean 	1.6888888888889
scalar Network.dyn_peer[178] 	lookupStabilitySig:mean 	0.8319510049704
scalar Network.dyn_peer[178] 	lookupHopsSig:mean 	16
scalar Network.dyn_peer[179] 	lookupTimeSig:mean 	1.1
scalar Network.dyn_peer[179] 	lookupStabilitySig:mean 	0.78751276382668
scalar Network.dyn_peer[179] 	lookupHopsSig:mean 	10.090909090909
scalar Network.dyn_peer[180] 	lookupTimeSig:mean 	2.4666666666667
scalar Network.dyn_peer[180] 	lookupStabilitySig:mean 	0.77598906432589
scalar Network.dyn_peer[180] 	lookupHopsSig:mean 	24
scalar Network.dyn_peer[181] 	lookupTimeSig:mean 	1.125
scalar Network.dyn_peer[181] 	lookupStabilitySig:mean 	0.51996781863272
scalar Network.dyn_peer[181] 	lookupHopsSig:mean 	10.5
scalar Network.dyn_peer[182] 	lookupTimeSig:mean 	1.4142857142857
scalar Network.dyn_peer[182] 	lookupStabilitySig:mean 	0.88975977259023
scalar Network.dyn_peer[182] 	lookupHopsSig:mean 	13.285714285714
scalar Network.dyn_peer[183] 	lookupTimeSig:mean 	1.2636363636364
scalar Network.dyn_peer[183] 	lookupStabilitySig:mean 	0.93106592141769
scalar Network.dyn_peer[183] 	lookupHopsSig:mean 	11.727272727273
scalar Network.dyn_peer[184] 	lookupTimeSig:mean 	0.96666666666667
scalar Network.dyn_peer[184] 	lookupStabilitySig:mean 	0.24756335218747
scalar Network.dyn_peer[184] 	lookupHopsSig:mean 	9
scalar Network.dyn_peer[185] 	lookupTimeSig:mean 	1.5
scalar Network.dyn_peer[185] 	lookupStabilitySig:mean 	0.55853658169508
scalar Network.dyn_peer[185] 	lookupHopsSig:mean 	14.5
scalar Network.dyn_peer[186] 	lookupTimeSig:mean 	1.1
scalar Network.dyn_peer[186] 	lookupStabilitySig:mean 	0.42818182210128
scalar Network.dyn_peer[186] 	lookupHopsSig:mean 	10.333333333333
scalar Network.dyn_peer[187] 	lookupTimeSig:mean 	1.25
scalar Network.dyn_peer[187] 	lookupStabilitySig:mean 	0.83537286957726
scalar Network.dyn_peer[187] 	lookupHopsSig:mean 	11.6
scalar Network.dyn_peer[188] 	lookupTimeSig:mean 	1.1428571428571
scalar Network.dyn_peer[188] 	lookupStabilitySig:mean 	0.87860204226204
scalar Network.dyn_peer[188] 	lookupHopsSig:mean 	10.571428571429
scalar Network.dyn_peer[189] 	lookupTimeSig:mean 	1.2
scalar Network.dyn_peer[189] 	lookupStabilitySig:mean 	0.52787576864163
scalar Network.dyn_peer[189] 	lookupHopsSig:mean 	11.333333333333
scalar Network.dyn_peer[190] 	lookupTimeSig:mean 	1.3
scalar Network.dyn_peer[190] 	lookupStabilitySig:mean 	0.68720278888941
scalar Network.dyn_peer[190] 	lookupHopsSig:mean 	12.25
scalar Network.dyn_peer[191] 	lookupTimeSig:mean 	1.825
scalar Network.dyn_peer[191] 	lookupStabilitySig:mean 	0.67851459700614
scalar Network.dyn_peer[191] 	lookupHopsSig:mean 	17.5
scalar Network.dyn_peer[192] 	lookupTimeSig:mean 	0.86
scalar Network.dyn_peer[192] 	lookupStabilitySig:mean 	0.8448723597452
scalar Network.dyn_peer[192] 	lookupHopsSig:mean 	7.7
scalar Network.dyn_peer[193] 	lookupTimeSig:mean 	2.15
scalar Network.dyn_peer[193] 	lookupStabilitySig:mean 	0.88580533117056
scalar Network.dyn_peer[193] 	lookupHopsSig:mean 	20.75
scalar Network.dyn_peer[194] 	lookupTimeSig:mean 	1.2
scalar Network.dyn_peer[194] 	lookupStabilitySig:mean 	0.77324478626251
scalar Network.dyn_peer[194] 	lookupHopsSig:mean 	11.2
scalar Network.dyn_peer[195] 	lookupTimeSig:mean 	0.82222222222222
scalar Network.dyn_peer[195] 	lookupStabilitySig:mean 	0.76055912611385
scalar Network.dyn_peer[195] 	lookupHopsSig:mean 	7.3333333333333
scalar Network.dyn_peer[196] 	lookupTimeSig:mean 	0.88571428571429
scalar Network.dyn_peer[196] 	lookupStabilitySig:mean 	0.75175644044897
scalar Network.dyn_peer[196] 	lookupHopsSig:mean 	8
scalar Network.dyn_peer[197] 	lookupTimeSig:mean 	2.7666666666667
scalar Network.dyn_peer[197] 	lookupStabilitySig:mean 	0.69429122408231
scalar Network.dyn_peer[197] 	lookupHopsSig:mean 	27
scalar Network.dyn_peer[198] 	lookupTimeSig:mean 	1.5857142857143
scalar Network.dyn_peer[198] 	lookupStabilitySig:mean 	0.87718431225845
scalar Network.dyn_peer[198] 	lookupHopsSig:mean 	15
scalar Network.dyn_peer[199] 	lookupTimeSig:mean 	0.975
scalar Network.dyn_peer[199] 	lookupStabilitySig:mean 	0.55408950708807
scalar Network.dyn_peer[199] 	lookupHopsSig:mean 	9
scalar Network.dyn_peer[200] 	lookupTimeSig:mean 	0.72
scalar Network.dyn_peer[200] 	lookupStabilitySig:mean 	0.54380459487438
scalar Network.dyn_peer[200] 	lookupHopsSig:mean 	6.4
scalar Network.dyn_peer[201] 	lookupTimeSig:mean 	1.1571428571429
scalar Network.dyn_peer[201] 	lookupStabilitySig:mean 	0.69467057181256
scalar Network.dyn_peer[201] 	lookupHopsSig:mean 	10.714285714286
scalar Network.dyn_peer[202] 	lookupTimeSig:mean 	1.0833333333333
scalar Network.dyn_peer[202] 	lookupStabilitySig:mean 	0.58524904462198
scalar Network.dyn_peer[202] 	lookupHopsSig:mean 	10
scalar Network.dyn_peer[203] 	lookupTimeSig:mean 	1.6
scalar Network.dyn_peer[203] 	lookupStabilitySig:mean 	0.6957074025025
scalar Network.dyn_peer[203] 	lookupHopsSig:mean 	15.166666666667
scalar Network.dyn_peer[204] 	lookupTimeSig:mean 	1.22
scalar Network.dyn_peer[204] 	lookupStabilitySig:mean 	0.52504360899329
scalar Network.dyn_peer[204] 	lookupHopsSig:mean 	11.4
scalar Network.dyn_peer[205] 	lookupTimeSig:mean 	1.5666666666667
scalar Network.dyn_peer[205] 	lookupStabilitySig:mean 	0.92994323678108
scalar Network.dyn_peer[205] 	lookupHopsSig:mean 	14.777777777778
scalar Network.dyn_peer[206] 	lookupTimeSig:mean 	1.0875
scalar Network.dyn_peer[206] 	lookupStabilitySig:mean 	0.77802006341517
scalar Network.dyn_peer[206] 	lookupHopsSig:mean 	10
scalar Network.dyn_peer[207] 	lookupTimeSig:mean 	1.1555555555556
scalar Network.dyn_peer[207] 	lookupStabilitySig:mean 	0.89882664392806
scalar Network.dyn_peer[207] 	lookupHopsSig:mean 	10.666666666667
scalar Network.dyn_peer[208] 	lookupTimeSig:mean 	0.8
scalar Network.dyn_peer[208] 	lookupStabilitySig:mean 	0.40143288113177
scalar Network.dyn_peer[208] 	lookupHopsSig:mean 	7.25
scalar Network.dyn_peer[209] 	lookupTimeSig:mean 	0.88461538461538
scalar Network.dyn_peer[209] 	lookupStabilitySig:mean 	0.84378025408548
scalar Network.dyn_peer[209] 	lookupHopsSig:mean 	7.9230769230769
scalar Network.dyn_peer[210] 	lookupTimeSig:mean 	1.6
scalar Network.dyn_peer[210] 	lookupStabilitySig:mean 	0.70698096913596
scalar Network.dyn_peer[210] 	lookupHopsSig:mean 	15.166666666667
scalar Network.dyn_peer[211] 	lookupTimeSig:mean 	1.6333333333333
scalar Network.dyn_peer[211] 	lookupStabilitySig:mean 	0.70548114428918
scalar Network.dyn_peer[211] 	lookupHopsSig:mean 	15.666666666667
scalar Network.dyn_peer[212] 	lookupTimeSig:mean 	0.5
scalar Network.dyn_peer[212] 	lookupStabilitySig:mean 	0.48611110448837
scalar Network.dyn_peer[212] 	lookupHopsSig:mean 	4.25
scalar Network.dyn_peer[213] 	lookupTimeSig:mean 	1.02
scalar Network.dyn_peer[213] 	lookupStabilitySig:mean 	0.58978768847883
scalar Network.dyn_peer[213] 	lookupHopsSig:mean 	9.4
scalar Network.dyn_peer[214] 	lookupTimeSig:mean 	1.2
scalar Network.dyn_peer[214] 	lookupStabilitySig:mean 	0.29575164119403
scalar Network.dyn_peer[214] 	lookupHopsSig:mean 	11.333333333333
scalar Network.dyn_peer[215] 	lookupTimeSig:mean 	1.4166666666667
scalar Network.dyn_peer[215] 	lookupStabilitySig:mean 	0.69681021384895
scalar Network.dyn_peer[215] 	lookupHopsSig:mean 	13.333333333333
scalar Network.dyn_peer[216] 	lookupTimeSig:mean 	1.4625
scalar Network.dyn_peer[216] 	lookupStabilitySig:mean 	0.92029466340318
scalar Network.dyn_peer[216] 	lookupHopsSig:mean 	13.75
scalar Network.dyn_peer[217] 	lookupTimeSig:mean 	1.4333333333333
scalar Network.dyn_peer[217] 	lookupStabilitySig:mean 	0.6745971267422
scalar Network.dyn_peer[217] 	lookupHopsSig:mean 	13.5
scalar Network.dyn_peer[218] 	lookupTimeSig:mean 	1.02
scalar Network.dyn_peer[218] 	lookupStabilitySig:mean 	0.50310885235667
scalar Network.dyn_peer[218] 	lookupHopsSig:mean 	9.4
scalar Network.dyn_peer[219] 	lookupTimeSig:mean 	1.2166666666667
scalar Network.dyn_peer[219] 	lookupStabilitySig:mean 	0.78044529942175
scalar Network.dyn_peer[219] 	lookupHopsSig:mean 	11.333333333333
scalar Network.dyn_peer[220] 	lookupTimeSig:mean 	1.75
scalar Network.dyn_peer[220] 	lookupStabilitySig:mean 	0.54692599922419
scalar Network.dyn_peer[220] 	lookupHopsSig:mean 	16.75
scalar Network.dyn_peer[221] 	lookupTimeSig:mean 	1.0833333333333
scalar Network.dyn_peer[221] 	lookupStabilitySig:mean 	0.5873704738915
scalar Network.dyn_peer[221] 	lookupHopsSig:mean 	10
scalar Network.dyn_peer[222] 	lookupTimeSig:mean 	1.0428571428571
scalar Network.dyn_peer[222] 	lookupStabilitySig:mean 	0.74746735899576
scalar Network.dyn_peer[222] 	lookupHopsSig:mean 	9.5714285714286
scalar Network.dyn_peer[223] 	lookupTimeSig:mean 	1.3571428571429
scalar Network.dyn_peer[223] 	lookupStabilitySig:mean 	0.91357705901776
scalar Network.dyn_peer[223] 	lookupHopsSig:mean 	12.714285714286
scalar Network.dyn_peer[224] 	lookupTimeSig:mean 	1.1333333333333
scalar Network.dyn_peer[224] 	lookupStabilitySig:mean 	0.78362418524921
scalar Network.dyn_peer[224] 	lookupHopsSig:mean 	10.5
scalar Network.dyn_peer[225] 	lookupTimeSig:mean 	1.6
scalar Network.dyn_peer[225] 	lookupStabilitySig:mean 	0.68427405506372
scalar Network.dyn_peer[225] 	lookupHopsSig:mean 	15.333333333333
scalar Network.dyn_peer[226] 	lookupTimeSig:mean 	1.4
scalar Network.dyn_peer[226] 	lookupStabilitySig:mean 	0.40548932924867
scalar Network.dyn_peer[226] 	lookupHopsSig:mean 	13.25
scalar Network.dyn_peer[227] 	lookupTimeSig:mean 	1.24
scalar Network.dyn_peer[227] 	lookupStabilitySig:mean 	0.61642283201218
scalar Network.dyn_peer[227] 	lookupHopsSig:mean 	11.6
scalar Network.dyn_peer[228] 	lookupTimeSig:mean 	1.15
scalar Network.dyn_peer[228] 	lookupStabilitySig:mean 	0.56209398247302
scalar Network.dyn_peer[228] 	lookupHopsSig:mean 	10.75
scalar Network.dyn_peer[229] 	lookupTimeSig:mean 	2.0333333333333
scalar Network.dyn_peer[229] 	lookupStabilitySig:mean 	0.69134062031905
scalar Network.dyn_peer[229] 	lookupHopsSig:mean 	19.666666666667
scalar Network.dyn_peer[230] 	lookupTimeSig:mean 	1.7571428571429
scalar Network.dyn_peer[230] 	lookupStabilitySig:mean 	0.86467330104538
scalar Network.dyn_peer[230] 	lookupHopsSig:mean 	16.714285714286
scalar Network.dyn_peer[231] 	lookupTimeSig:mean 	1.7
scalar Network.dyn_peer[231] 	lookupStabilitySig:mean 	0.42673993359009
scalar Network.dyn_peer[231] 	lookupHopsSig:mean 	16.333333333333
scalar Network.dyn_peer[232] 	lookupTimeSig:mean 	1
scalar Network.dyn_peer[232] 	lookupStabilitySig:mean 	0.81112224289349
scalar Network.dyn_peer[232] 	lookupHopsSig:mean 	9.1428571428571
scalar Network.dyn_peer[233] 	lookupTimeSig:mean 	1.8
scalar Network.dyn_peer[233] 	lookupStabilitySig:mean 	0.40714285522699
scalar Network.dyn_peer[233] 	lookupHopsSig:mean 	17.5
scalar Network.dyn_peer[234] 	lookupTimeSig:mean 	1.625
scalar Network.dyn_peer[234] 	lookupStabilitySig:mean 	0.70992445247248
scalar Network.dyn_peer[234] 	lookupHopsSig:mean 	15.5
scalar Network.dyn_peer[235] 	lookupTimeSig:mean 	1.75
scalar Network.dyn_peer[235] 	lookupStabilitySig:mean 	0.84748469851911
scalar Network.dyn_peer[235] 	lookupHopsSig:mean 	16.75
scalar Network.dyn_peer[236] 	lookupTimeSig:mean 	1.0285714285714
scalar Network.dyn_peer[236] 	lookupStabilitySig:mean 	0.82931152345347
scalar Network.dyn_peer[236] 	lookupHopsSig:mean 	9.4285714285714
scalar Network.dyn_peer[237] 	lookupTimeSig:mean 	1.7666666666667
scalar Network.dyn_peer[237] 	lookupStabilitySig:mean 	0.29131869475047
scalar Network.dyn_peer[237] 	lookupHopsSig:mean 	17
scalar Network.dyn_peer[238] 	lookupTimeSig:mean 	1.425
scalar Network.dyn_peer[238] 	lookupStabilitySig:mean 	0.72647058218718
scalar Network.dyn_peer[238] 	lookupHopsSig:mean 	13.5
scalar Network.dyn_peer[239] 	lookupTimeSig:mean 	1.2571428571429
scalar Network.dyn_peer[239] 	lookupStabilitySig:mean 	0.85161663764822
scalar Network.dyn_peer[239] 	lookupHopsSig:mean 	11.714285714286
scalar Network.dyn_peer[240] 	lookupTimeSig:mean 	1.66
scalar Network.dyn_peer[240] 	lookupStabilitySig:mean 	0.81641054861248
scalar Network.dyn_peer[240] 	lookupHopsSig:mean 	15.8
scalar Network.dyn_peer[241] 	lookupTimeSig:mean 	1.3125
scalar Network.dyn_peer[241] 	lookupStabilitySig:mean 	0.86164745921269
scalar Network.dyn_peer[241] 	lookupHopsSig:mean 	12.25
scalar Network.dyn_peer[242] 	lookupTimeSig:mean 	1.6333333333333
scalar Network.dyn_peer[242] 	lookupStabilitySig:mean 	0.89054040222739
scalar Network.dyn_peer[242] 	lookupHopsSig:mean 	15.5
scalar Network.dyn_peer[243] 	lookupTimeSig:mean 	0.9
scalar Network.dyn_peer[243] 	lookupStabilitySig:mean 	0.8220529502935
scalar Network.dyn_peer[243] 	lookupHopsSig:mean 	8.0909090909091
scalar Network.dyn_peer[244] 	lookupTimeSig:mean 	1.575
scalar Network.dyn_peer[244] 	lookupStabilitySig:mean 	0.84226651978679
scalar Network.dyn_peer[244] 	lookupHopsSig:mean 	14.875
scalar Network.dyn_peer[245] 	lookupTimeSig:mean 	1.875
scalar Network.dyn_peer[245] 	lookupStabilitySig:mean 	0.74441990954801
scalar Network.dyn_peer[245] 	lookupHopsSig:mean 	18
scalar Network.dyn_peer[246] 	lookupTimeSig:mean 	0.7
scalar Network.dyn_peer[246] 	lookupStabilitySig:mean 	0.32222220301628
scalar Network.dyn_peer[246] 	lookupHopsSig:mean 	6.3333333333333
scalar Network.dyn_peer[247] 	lookupTimeSig:mean 	2.45
scalar Network.dyn_peer[247] 	lookupStabilitySig:mean 	0.55568603426218
scalar Network.dyn_peer[247] 	lookupHopsSig:mean 	24
scalar Network.dyn_peer[248] 	lookupTimeSig:mean 	0.68571428571429
scalar Network.dyn_peer[248] 	lookupStabilitySig:mean 	0.66550337629659
scalar Network.dyn_peer[248] 	lookupHopsSig:mean 	6
scalar Network.dyn_peer[249] 	lookupTimeSig:mean 	1.42
scalar Network.dyn_peer[249] 	lookupStabilitySig:mean 	0.56646725982428
scalar Network.dyn_peer[249] 	lookupHopsSig:mean 	13.4
scalar Network.dyn_peer[250] 	lookupTimeSig:mean 	1.275
scalar Network.dyn_peer[250] 	lookupStabilitySig:mean 	0.59628399834037
scalar Network.dyn_peer[250] 	lookupHopsSig:mean 	12
scalar Network.dyn_peer[251] 	lookupTimeSig:mean 	1.1875
scalar Network.dyn_peer[251] 	lookupStabilitySig:mean 	0.75927652476821
scalar Network.dyn_peer[251] 	lookupHopsSig:mean 	11
scalar Network.dyn_peer[252] 	lookupTimeSig:mean 	1.4125
scalar Network.dyn_peer[252] 	lookupStabilitySig:mean 	0.93557900097221
scalar Network.dyn_peer[252] 	lookupHopsSig:mean 	13.25
scalar Network.dyn_peer[253] 	lookupTimeSig:mean 	1
scalar Network.dyn_peer[253] 	lookupStabilitySig:mean 	0.80749751802068
scalar Network.dyn_peer[253] 	lookupHopsSig:mean 	9.125
scalar Network.dyn_peer[254] 	lookupTimeSig:mean 	1.7333333333333
scalar Network.dyn_peer[254] 	lookupStabilitySig:mean 	0.69749373197556
scalar Network.dyn_peer[254] 	lookupHopsSig:mean 	16.666666666667
scalar Network.dyn_peer[255] 	lookupTimeSig:mean 	2.35
scalar Network.dyn_peer[255] 	lookupStabilitySig:mean 	0.74166261404753
scalar Network.dyn_peer[255] 	lookupHopsSig:mean 	23
scalar Network.dyn_peer[256] 	lookupTimeSig:mean 	1.55
scalar Network.dyn_peer[256] 	lookupStabilitySig:mean 	0.055319160223007
scalar Network.dyn_peer[256] 	lookupHopsSig:mean 	15
scalar Network.dyn_peer[257] 	lookupTimeSig:mean 	1.575
scalar Network.dyn_peer[257] 	lookupStabilitySig:mean 	0.83380441041663
scalar Network.dyn_peer[257] 	lookupHopsSig:mean 	15
scalar Network.dyn_peer[258] 	lookupTimeSig:mean 	0.9
scalar Network.dyn_peer[258] 	lookupStabilitySig:mean 	0.28518515825272
scalar Network.dyn_peer[258] 	lookupHopsSig:mean 	8.3333333333333
scalar Network.dyn_peer[259] 	lookupTimeSig:mean 	0.82
scalar Network.dyn_peer[259] 	lookupStabilitySig:mean 	0.76394344959408
scalar Network.dyn_peer[259] 	lookupHopsSig:mean 	7.3
scalar Network.dyn_peer[260] 	lookupTimeSig:mean 	1.3
scalar Network.dyn_peer[260] 	lookupStabilitySig:mean 	0.83344835570703
scalar Network.dyn_peer[260] 	lookupHopsSig:mean 	12.166666666667
scalar Network.dyn_peer[261] 	lookupTimeSig:mean 	1.5
scalar Network.dyn_peer[261] 	lookupStabilitySig:mean 	0.68367313593626
scalar Network.dyn_peer[261] 	lookupHopsSig:mean 	14.2
scalar Network.dyn_peer[262] 	lookupTimeSig:mean 	1.1666666666667
scalar Network.dyn_peer[262] 	lookupStabilitySig:mean 	0.75966528554757
scalar Network.dyn_peer[262] 	lookupHopsSig:mean 	10.833333333333
scalar Network.dyn_peer[263] 	lookupTimeSig:mean 	1.775
scalar Network.dyn_peer[263] 	lookupStabilitySig:mean 	0.75328055676073
scalar Network.dyn_peer[263] 	lookupHopsSig:mean 	17
scalar Network.dyn_peer[264] 	lookupTimeSig:mean 	1.425
scalar Network.dyn_peer[264] 	lookupStabilitySig:mean 	0.53974324464798
scalar Network.dyn_peer[264] 	lookupHopsSig:mean 	13.5
scalar Network.dyn_peer[265] 	lookupTimeSig:mean 	0.925
scalar Network.dyn_peer[265] 	lookupStabilitySig:mean 	0.68468570522964
scalar Network.dyn_peer[265] 	lookupHopsSig:mean 	8.5
scalar Network.dyn_peer[266] 	lookupTimeSig:mean 	1.3333333333333
scalar Network.dyn_peer[266] 	lookupStabilitySig:mean 	0.43460535009702
scalar Network.dyn_peer[266] 	lookupHopsSig:mean 	12.666666666667
scalar Network.dyn_peer[267] 	lookupTimeSig:mean 	0.68333333333333
scalar Network.dyn_peer[267] 	lookupStabilitySig:mean 	0.58107520764073
scalar Network.dyn_peer[267] 	lookupHopsSig:mean 	6
scalar Network.dyn_peer[268] 	lookupTimeSig:mean 	1.075
scalar Network.dyn_peer[268] 	lookupStabilitySig:mean 	0.49339293688536
scalar Network.dyn_peer[268] 	lookupHopsSig:mean 	10
scalar Network.dyn_peer[269] 	lookupTimeSig:mean 	1.5142857142857
scalar Network.dyn_peer[269] 	lookupStabilitySig:mean 	0.92027750864093
scalar Network.dyn_peer[269] 	lookupHopsSig:mean 	14.285714285714
scalar Network.dyn_peer[270] 	lookupTimeSig:mean 	0.71666666666667
scalar Network.dyn_peer[270] 	lookupStabilitySig:mean 	0.69367285445333
scalar Network.dyn_peer[270] 	lookupHopsSig:mean 	6.3333333333333
scalar Network.dyn_peer[271] 	lookupTimeSig:mean 	2.7
scalar Network.dyn_peer[271] 	lookupStabilitySig:mean 	0.7882695744435
scalar Network.dyn_peer[271] 	lookupHopsSig:mean 	26.333333333333
scalar Network.dyn_peer[272] 	lookupTimeSig:mean 	0.8375
scalar Network.dyn_peer[272] 	lookupStabilitySig:mean 	0.71272449451499
scalar Network.dyn_peer[272] 	lookupHopsSig:mean 	7.5
scalar Network.dyn_peer[273] 	lookupTimeSig:mean 	1.05
scalar Network.dyn_peer[273] 	lookupStabilitySig:mean 	0.75781065737829
scalar Network.dyn_peer[273] 	lookupHopsSig:mean 	9.75
scalar Network.dyn_peer[274] 	lookupTimeSig:mean 	1.32
scalar Network.dyn_peer[274] 	lookupStabilitySig:mean 	0.88005107827485
scalar Network.dyn_peer[274] 	lookupHopsSig:mean 	12.4
scalar Network.dyn_peer[275] 	lookupTimeSig:mean 	2.6
scalar Network.dyn_peer[275] 	lookupStabilitySig:mean 	0.20588232576847
scalar Network.dyn_peer[275] 	lookupHopsSig:mean 	25.5
scalar Network.dyn_peer[276] 	lookupTimeSig:mean 	1.55
scalar Network.dyn_peer[276] 	lookupStabilitySig:mean 	0.1088435202837
scalar Network.dyn_peer[276] 	lookupHopsSig:mean 	15
scalar Network.dyn_peer[277] 	lookupTimeSig:mean 	1.725
scalar Network.dyn_peer[277] 	lookupStabilitySig:mean 	0.68257261253893
scalar Network.dyn_peer[277] 	lookupHopsSig:mean 	16.5
scalar Network.dyn_peer[278] 	lookupTimeSig:mean 	1.54
scalar Network.dyn_peer[278] 	lookupStabilitySig:mean 	0.80755818411708
scalar Network.dyn_peer[278] 	lookupHopsSig:mean 	14.6
scalar Network.dyn_peer[279] 	lookupTimeSig:mean 	1.1
scalar Network.dyn_peer[279] 	lookupStabilitySig:mean 	0.87157814271216
scalar Network.dyn_peer[279] 	lookupHopsSig:mean 	10.142857142857
scalar Network.dyn_peer[280] 	lookupTimeSig:mean 	1.525
scalar Network.dyn_peer[280] 	lookupStabilitySig:mean 	0.72358178999275
scalar Network.dyn_peer[280] 	lookupHopsSig:mean 	14.5
scalar Network.dyn_peer[281] 	lookupTimeSig:mean 	1.675
scalar Network.dyn_peer[281] 	lookupStabilitySig:mean 	0.52170541882515
scalar Network.dyn_peer[281] 	lookupHopsSig:mean 	16
scalar Network.dyn_peer[282] 	lookupTimeSig:mean 	2.18
scalar Network.dyn_peer[282] 	lookupStabilitySig:mean 	0.86946927160025
scalar Network.dyn_peer[282] 	lookupHopsSig:mean 	21
scalar Network.dyn_peer[283] 	lookupTimeSig:mean 	1.525
scalar Network.dyn_peer[283] 	lookupStabilitySig:mean 	0.71713720401749
scalar Network.dyn_peer[283] 	lookupHopsSig:mean 	14.5
scalar Network.dyn_peer[284] 	lookupTimeSig:mean 	1.2333333333333
scalar Network.dyn_peer[284] 	lookupStabilitySig:mean 	0.94988879045316
scalar Network.dyn_peer[284] 	lookupHopsSig:mean 	11.416666666667
scalar Network.dyn_peer[285] 	lookupTimeSig:mean 	0.6
scalar Network.dyn_peer[285] 	lookupStabilitySig:mean 	0.56461537033319
scalar Network.dyn_peer[285] 	lookupHopsSig:mean 	5.2
scalar Network.dyn_peer[286] 	lookupTimeSig:mean 	1.0923076923077
scalar Network.dyn_peer[286] 	lookupStabilitySig:mean 	0.93440956933997
scalar Network.dyn_peer[286] 	lookupHopsSig:mean 	10
scalar Network.dyn_peer[287] 	lookupTimeSig:mean 	1.3
scalar Network.dyn_peer[287] 	lookupStabilitySig:mean 	0.87832349864766
scalar Network.dyn_peer[287] 	lookupHopsSig:mean 	12.166666666667
scalar Network.dyn_peer[288] 	lookupTimeSig:mean 	1.6333333333333
scalar Network.dyn_peer[288] 	lookupStabilitySig:mean 	0.49981725464265
scalar Network.dyn_peer[288] 	lookupHopsSig:mean 	15.666666666667
scalar Network.dyn_peer[289] 	lookupTimeSig:mean 	2
scalar Network.dyn_peer[289] 	lookupStabilitySig:mean 	0.87321689864621
scalar Network.dyn_peer[289] 	lookupHopsSig:mean 	19.25
scalar Network.dyn_peer[290] 	lookupTimeSig:mean 	1.5
scalar Network.dyn_peer[290] 	lookupStabilitySig:mean 	0.8824559815228
scalar Network.dyn_peer[290] 	lookupHopsSig:mean 	14.2
scalar Network.dyn_peer[291] 	lookupTimeSig:mean 	1.5571428571429
scalar Network.dyn_peer[291] 	lookupStabilitySig:mean 	0.93988279093589
scalar Network.dyn_peer[291] 	lookupHopsSig:mean 	14.714285714286
scalar Network.dyn_peer[292] 	lookupTimeSig:mean 	1.1142857142857
scalar Network.dyn_peer[292] 	lookupStabilitySig:mean 	0.77352163674576
scalar Network.dyn_peer[292] 	lookupHopsSig:mean 	10.285714285714
scalar Network.dyn_peer[293] 	lookupTimeSig:mean 	0.89230769230769
scalar Network.dyn_peer[293] 	lookupStabilitySig:mean 	0.94514556110908
scalar Network.dyn_peer[293] 	lookupHopsSig:mean 	8
scalar Network.dyn_peer[294] 	lookupTimeSig:mean 	1.25
scalar Network.dyn_peer[294] 	lookupStabilitySig:mean 	0.17222222685814
scalar Network.dyn_peer[294] 	lookupHopsSig:mean 	12
scalar Network.dyn_peer[295] 	lookupTimeSig:mean 	1.5166666666667
scalar Network.dyn_peer[295] 	lookupStabilitySig:mean 	0.89229069987778
scalar Network.dyn_peer[295] 	lookupHopsSig:mean 	14.333333333333
scalar Network.dyn_peer[296] 	lookupTimeSig:mean 	1.5
scalar Network.dyn_peer[296] 	lookupStabilitySig:mean 	0.5472527295351
scalar Network.dyn_peer[296] 	lookupHopsSig:mean 	14.333333333333
scalar Network.dyn_peer[297] 	lookupTimeSig:mean 	0.625
scalar Network.dyn_peer[297] 	lookupStabilitySig:mean 	0.42944711446762
scalar Network.dyn_peer[297] 	lookupHopsSig:mean 	5.5
scalar Network.dyn_peer[298] 	lookupTimeSig:mean 	1.3285714285714
scalar Network.dyn_peer[298] 	lookupStabilitySig:mean 	0.84957552288792
scalar Network.dyn_peer[298] 	lookupHopsSig:mean 	12.428571428571
scalar Network.dyn_peer[299] 	lookupTimeSig:mean 	1.225
scalar Network.dyn_peer[299] 	lookupStabilitySig:mean 	0.87136482319329
scalar Network.dyn_peer[299] 	lookupHopsSig:mean 	11.375
scalar Network.dyn_peer[300] 	lookupTimeSig:mean 	1.2307692307692
scalar Network.dyn_peer[300] 	lookupStabilitySig:mean 	0.8641580682821
scalar Network.dyn_peer[300] 	lookupHopsSig:mean 	11.384615384615
scalar Network.dyn_peer[301] 	lookupTimeSig:mean 	1.58
scalar Network.dyn_peer[301] 	lookupStabilitySig:mean 	0.80420938432217
scalar Network.dyn_peer[301] 	lookupHopsSig:mean 	15
scalar Network.dyn_peer[302] 	lookupTimeSig:mean 	2.6
scalar Network.dyn_peer[302] 	lookupStabilitySig:mean 	0.73429477214813
scalar Network.dyn_peer[302] 	lookupHopsSig:mean 	25.5
scalar Network.dyn_peer[303] 	lookupTimeSig:mean 	1.07
scalar Network.dyn_peer[303] 	lookupStabilitySig:mean 	0.79772924799472
scalar Network.dyn_peer[303] 	lookupHopsSig:mean 	9.8
scalar Network.dyn_peer[304] 	lookupTimeSig:mean 	2.6
scalar Network.dyn_peer[304] 	lookupStabilitySig:mean 	0.68031561126312
scalar Network.dyn_peer[304] 	lookupHopsSig:mean 	25.333333333333
scalar Network.dyn_peer[305] 	lookupTimeSig:mean 	0.82222222222222
scalar Network.dyn_peer[305] 	lookupStabilitySig:mean 	0.95901595832159
scalar Network.dyn_peer[305] 	lookupHopsSig:mean 	7.2777777777778
scalar Network.dyn_peer[306] 	lookupTimeSig:mean 	1.6
scalar Network.dyn_peer[306] 	lookupStabilitySig:mean 	0.91039291024208
scalar Network.dyn_peer[306] 	lookupHopsSig:mean 	15.125
scalar Network.dyn_peer[307] 	lookupTimeSig:mean 	1.6
scalar Network.dyn_peer[307] 	lookupStabilitySig:mean 	0.59995038807392
scalar Network.dyn_peer[307] 	lookupHopsSig:mean 	15.333333333333
scalar Network.dyn_peer[308] 	lookupTimeSig:mean 	1.0615384615385
scalar Network.dyn_peer[308] 	lookupStabilitySig:mean 	0.8257520988297
scalar Network.dyn_peer[308] 	lookupHopsSig:mean 	9.6923076923077
scalar Network.dyn_peer[309] 	lookupTimeSig:mean 	1.8142857142857
scalar Network.dyn_peer[309] 	lookupStabilitySig:mean 	0.9138724923666
scalar Network.dyn_peer[309] 	lookupHopsSig:mean 	17.285714285714
scalar Network.dyn_peer[310] 	lookupTimeSig:mean 	1.52
scalar Network.dyn_peer[310] 	lookupStabilitySig:mean 	0.67204101718962
scalar Network.dyn_peer[310] 	lookupHopsSig:mean 	14.4
scalar Network.dyn_peer[311] 	lookupTimeSig:mean 	1.26
scalar Network.dyn_peer[311] 	lookupStabilitySig:mean 	0.73701953142881
scalar Network.dyn_peer[311] 	lookupHopsSig:mean 	11.8
scalar Network.dyn_peer[312] 	lookupTimeSig:mean 	1.65
scalar Network.dyn_peer[312] 	lookupStabilitySig:mean 	0.64999999850988
scalar Network.dyn_peer[312] 	lookupHopsSig:mean 	16
scalar Network.dyn_peer[313] 	lookupTimeSig:mean 	1.3
scalar Network.dyn_peer[313] 	lookupStabilitySig:mean 	0.86575655275956
scalar Network.dyn_peer[313] 	lookupHopsSig:mean 	12.1
scalar Network.dyn_peer[314] 	lookupTimeSig:mean 	1.2285714285714
scalar Network.dyn_peer[314] 	lookupStabilitySig:mean 	0.88022988422641
scalar Network.dyn_peer[314] 	lookupHopsSig:mean 	11.428571428571
scalar Network.dyn_peer[315] 	lookupTimeSig:mean 	1.325
scalar Network.dyn_peer[315] 	lookupStabilitySig:mean 	0.74014542065561
scalar Network.dyn_peer[315] 	lookupHopsSig:mean 	12.5
scalar Network.dyn_peer[316] 	lookupTimeSig:mean 	0.95
scalar Network.dyn_peer[316] 	lookupStabilitySig:mean 	0.75921947850535
scalar Network.dyn_peer[316] 	lookupHopsSig:mean 	8.6666666666667
scalar Network.dyn_peer[317] 	lookupTimeSig:mean 	1.95
scalar Network.dyn_peer[317] 	lookupStabilitySig:mean 	0.44864340126514
scalar Network.dyn_peer[317] 	lookupHopsSig:mean 	19
scalar Network.dyn_peer[318] 	lookupTimeSig:mean 	1.18
scalar Network.dyn_peer[318] 	lookupStabilitySig:mean 	0.65070638284087
scalar Network.dyn_peer[318] 	lookupHopsSig:mean 	11
scalar Network.dyn_peer[319] 	lookupTimeSig:mean 	2.05
scalar Network.dyn_peer[319] 	lookupStabilitySig:mean 	0.47075689025223
scalar Network.dyn_peer[319] 	lookupHopsSig:mean 	19.75
scalar Network.dyn_peer[320] 	lookupTimeSig:mean 	1.125
scalar Network.dyn_peer[320] 	lookupStabilitySig:mean 	0.6374373305589
scalar Network.dyn_peer[320] 	lookupHopsSig:mean 	10.5
scalar Network.dyn_peer[321] 	lookupTimeSig:mean 	1.4
scalar Network.dyn_peer[321] 	lookupStabilitySig:mean 	0.93059751251712
scalar Network.dyn_peer[321] 	lookupHopsSig:mean 	13.1
scalar Network.dyn_peer[322] 	lookupTimeSig:mean 	1.34
scalar Network.dyn_peer[322] 	lookupStabilitySig:mean 	0.71273070722818
scalar Network.dyn_peer[322] 	lookupHopsSig:mean 	12.6
scalar Network.dyn_peer[323] 	lookupTimeSig:mean 	1.65
scalar Network.dyn_peer[323] 	lookupStabilitySig:mean 	0.59610575810075
scalar Network.dyn_peer[323] 	lookupHopsSig:mean 	15.75
scalar Network.dyn_peer[324] 	lookupTimeSig:mean 	1.1125
scalar Network.dyn_peer[324] 	lookupStabilitySig:mean 	0.90764832403511
scalar Network.dyn_peer[324] 	lookupHopsSig:mean 	10.25
scalar Network.dyn_peer[325] 	lookupTimeSig:mean 	0.78571428571429
scalar Network.dyn_peer[325] 	lookupStabilitySig:mean 	0.8339564712452
scalar Network.dyn_peer[325] 	lookupHopsSig:mean 	7
scalar Network.dyn_peer[326] 	lookupTimeSig:mean 	1.3285714285714
scalar Network.dyn_peer[326] 	lookupStabilitySig:mean 	0.79746937778379
scalar Network.dyn_peer[326] 	lookupHopsSig:mean 	12.428571428571
scalar Network.dyn_peer[327] 	lookupTimeSig:mean 	2.6666666666667
scalar Network.dyn_peer[327] 	lookupStabilitySig:mean 	0.47213203211625
scalar Network.dyn_peer[327] 	lookupHopsSig:mean 	26
scalar Network.dyn_peer[328] 	lookupTimeSig:mean 	1.7444444444444
scalar Network.dyn_peer[328] 	lookupStabilitySig:mean 	0.90235388009912
scalar Network.dyn_peer[328] 	lookupHopsSig:mean 	16.555555555556
scalar Network.dyn_peer[329] 	lookupTimeSig:mean 	1.5
scalar Network.dyn_peer[329] 	lookupStabilitySig:mean 	0.44255128875375
scalar Network.dyn_peer[329] 	lookupHopsSig:mean 	14.25
scalar Network.dyn_peer[330] 	lookupTimeSig:mean 	1.1
scalar Network.dyn_peer[330] 	lookupStabilitySig:mean 	0.76003571289281
scalar Network.dyn_peer[330] 	lookupHopsSig:mean 	10.166666666667
scalar Network.dyn_peer[331] 	lookupTimeSig:mean 	1.0222222222222
scalar Network.dyn_peer[331] 	lookupStabilitySig:mean 	0.91431673740347
scalar Network.dyn_peer[331] 	lookupHopsSig:mean 	9.3333333333333
scalar Network.dyn_peer[332] 	lookupTimeSig:mean 	1.15
scalar Network.dyn_peer[332] 	lookupStabilitySig:mean 	0.69921388756484
scalar Network.dyn_peer[332] 	lookupHopsSig:mean 	10.75
scalar Network.dyn_peer[333] 	lookupTimeSig:mean 	0.9
scalar Network.dyn_peer[333] 	lookupStabilitySig:mean 	0.55208332743496
scalar Network.dyn_peer[333] 	lookupHopsSig:mean 	8.25
scalar Network.dyn_peer[334] 	lookupTimeSig:mean 	1.3166666666667
scalar Network.dyn_peer[334] 	lookupStabilitySig:mean 	0.7765520128111
scalar Network.dyn_peer[334] 	lookupHopsSig:mean 	12.333333333333
scalar Network.dyn_peer[335] 	lookupTimeSig:mean 	1.15
scalar Network.dyn_peer[335] 	lookupStabilitySig:mean 	0.52747016772628
scalar Network.dyn_peer[335] 	lookupHopsSig:mean 	10.75
scalar Network.dyn_peer[336] 	lookupTimeSig:mean 	1.12
scalar Network.dyn_peer[336] 	lookupStabilitySig:mean 	0.84386957846582
scalar Network.dyn_peer[336] 	lookupHopsSig:mean 	10.3
scalar Network.dyn_peer[337] 	lookupTimeSig:mean 	0.85
scalar Network.dyn_peer[337] 	lookupStabilitySig:mean 	0.21367518603802
scalar Network.dyn_peer[337] 	lookupHopsSig:mean 	8
scalar Network.dyn_peer[338] 	lookupTimeSig:mean 	1.225
scalar Network.dyn_peer[338] 	lookupStabilitySig:mean 	0.59195087384433
scalar Network.dyn_peer[338] 	lookupHopsSig:mean 	11.5
scalar Network.dyn_peer[339] 	lookupTimeSig:mean 	2.2
scalar Network.dyn_peer[339] 	lookupStabilitySig:mean 	0.53787878900766
scalar Network.dyn_peer[339] 	lookupHopsSig:mean 	21.5
scalar Network.dyn_peer[340] 	lookupTimeSig:mean 	2.75
scalar Network.dyn_peer[340] 	lookupStabilitySig:mean 	0.63950617611408
scalar Network.dyn_peer[340] 	lookupHopsSig:mean 	27
scalar Network.dyn_peer[341] 	lookupTimeSig:mean 	0.84444444444444
scalar Network.dyn_peer[341] 	lookupStabilitySig:mean 	0.77310256597896
scalar Network.dyn_peer[341] 	lookupHopsSig:mean 	7.5555555555556
scalar Network.dyn_peer[342] 	lookupTimeSig:mean 	1.85
scalar Network.dyn_peer[342] 	lookupStabilitySig:mean 	0.49350649118423
scalar Network.dyn_peer[342] 	lookupHopsSig:mean 	18
scalar Network.dyn_peer[343] 	lookupTimeSig:mean 	1.8666666666667
scalar Network.dyn_peer[343] 	lookupStabilitySig:mean 	0.75349279741446
scalar Network.dyn_peer[343] 	lookupHopsSig:mean 	18
scalar Network.dyn_peer[344] 	lookupTimeSig:mean 	1.25
scalar Network.dyn_peer[344] 	lookupStabilitySig:mean 	0.7034743912518
scalar Network.dyn_peer[344] 	lookupHopsSig:mean 	11.75
scalar Network.dyn_peer[345] 	lookupTimeSig:mean 	1.2666666666667
scalar Network.dyn_peer[345] 	lookupStabilitySig:mean 	0.60389610628287
scalar Network.dyn_peer[345] 	lookupHopsSig:mean 	12
scalar Network.dyn_peer[346] 	lookupTimeSig:mean 	2.25
scalar Network.dyn_peer[346] 	lookupStabilitySig:mean 	0.28735634684563
scalar Network.dyn_peer[346] 	lookupHopsSig:mean 	22
scalar Network.dyn_peer[347] 	lookupTimeSig:mean 	0.68181818181818
scalar Network.dyn_peer[347] 	lookupStabilitySig:mean 	0.82304884887046
scalar Network.dyn_peer[347] 	lookupHopsSig:mean 	5.9090909090909
scalar Network.dyn_peer[348] 	lookupTimeSig:mean 	1
scalar Network.dyn_peer[348] 	lookupStabilitySig:mean 	0.92209082383973
scalar Network.dyn_peer[348] 	lookupHopsSig:mean 	9.1666666666667
scalar Network.dyn_peer[349] 	lookupTimeSig:mean 	1.2666666666667
scalar Network.dyn_peer[349] 	lookupStabilitySig:mean 	0.82853845920828
scalar Network.dyn_peer[349] 	lookupHopsSig:mean 	11.777777777778
scalar Network.dyn_peer[350] 	lookupTimeSig:mean 	1.8
scalar Network.dyn_peer[350] 	lookupStabilitySig:mean 	0.67325732810423
scalar Network.dyn_peer[350] 	lookupHopsSig:mean 	17.25
scalar Network.dyn_peer[351] 	lookupTimeSig:mean 	0.82857142857143
scalar Network.dyn_peer[351] 	lookupStabilitySig:mean 	0.7566395602189
scalar Network.dyn_peer[351] 	lookupHopsSig:mean 	7.4285714285714
scalar Network.dyn_peer[352] 	lookupTimeSig:mean 	0.46
scalar Network.dyn_peer[352] 	lookupStabilitySig:mean 	0.71128204911947
scalar Network.dyn_peer[352] 	lookupHopsSig:mean 	3.8
scalar Network.dyn_peer[353] 	lookupTimeSig:mean 	1.6
scalar Network.dyn_peer[353] 	lookupStabilitySig:mean 	0.27421306818724
scalar Network.dyn_peer[353] 	lookupHopsSig:mean 	15.5
scalar Network.dyn_peer[354] 	lookupTimeSig:mean 	1.4583333333333
scalar Network.dyn_peer[354] 	lookupStabilitySig:mean 	0.86704682892499
scalar Network.dyn_peer[354] 	lookupHopsSig:mean 	13.666666666667
scalar Network.dyn_peer[355] 	lookupTimeSig:mean 	1.1
scalar Network.dyn_peer[355] 	lookupStabilitySig:mean 	0.60326829878613
scalar Network.dyn_peer[355] 	lookupHopsSig:mean 	10.25
scalar Network.dyn_peer[356] 	lookupTimeSig:mean 	0.97777777777778
scalar Network.dyn_peer[356] 	lookupStabilitySig:mean 	0.85222208375732
scalar Network.dyn_peer[356] 	lookupHopsSig:mean 	8.8888888888889
scalar Network.dyn_peer[357] 	lookupTimeSig:mean 	1.0833333333333
scalar Network.dyn_peer[357] 	lookupStabilitySig:mean 	0.67693023197353
scalar Network.dyn_peer[357] 	lookupHopsSig:mean 	10
scalar Network.dyn_peer[358] 	lookupTimeSig:mean 	1.4714285714286
scalar Network.dyn_peer[358] 	lookupStabilitySig:mean 	0.92033417482993
scalar Network.dyn_peer[358] 	lookupHopsSig:mean 	13.857142857143
scalar Network.dyn_peer[359] 	lookupTimeSig:mean 	1.875
scalar Network.dyn_peer[359] 	lookupStabilitySig:mean 	0.85523959994316
scalar Network.dyn_peer[359] 	lookupHopsSig:mean 	18
scalar Network.dyn_peer[360] 	lookupTimeSig:mean 	1.7
scalar Network.dyn_peer[360] 	lookupStabilitySig:mean 	0.76119536813349
scalar Network.dyn_peer[360] 	lookupHopsSig:mean 	16.25
scalar Network.dyn_peer[361] 	lookupTimeSig:mean 	1.15
scalar Network.dyn_peer[361] 	lookupStabilitySig:mean 	0.81506819836795
scalar Network.dyn_peer[361] 	lookupHopsSig:mean 	10.6
scalar Network.dyn_peer[362] 	lookupTimeSig:mean 	1.4
scalar Network.dyn_peer[362] 	lookupStabilitySig:mean 	0.81570914760232
scalar Network.dyn_peer[362] 	lookupHopsSig:mean 	13.166666666667
scalar Network.dyn_peer[363] 	lookupTimeSig:mean 	0.8
scalar Network.dyn_peer[363] 	lookupStabilitySig:mean 	0.74968800321221
scalar Network.dyn_peer[363] 	lookupHopsSig:mean 	7.1428571428571
scalar Network.dyn_peer[364] 	lookupTimeSig:mean 	2.75
scalar Network.dyn_peer[364] 	lookupStabilitySig:mean 	0.25858587026596
scalar Network.dyn_peer[364] 	lookupHopsSig:mean 	27
scalar Network.dyn_peer[365] 	lookupTimeSig:mean 	2.45
scalar Network.dyn_peer[365] 	lookupStabilitySig:mean 	0.56753097474575
scalar Network.dyn_peer[365] 	lookupHopsSig:mean 	24
scalar Network.dyn_peer[366] 	lookupTimeSig:mean 	1.6
scalar Network.dyn_peer[366] 	lookupStabilitySig:mean 	0.61951620628436
scalar Network.dyn_peer[366] 	lookupHopsSig:mean 	15.333333333333
scalar Network.dyn_peer[367] 	lookupTimeSig:mean 	1.4428571428571
scalar Network.dyn_peer[367] 	lookupStabilitySig:mean 	0.90015593596867
scalar Network.dyn_peer[367] 	lookupHopsSig:mean 	13.571428571429
scalar Network.dyn_peer[368] 	lookupTimeSig:mean 	1.0125
scalar Network.dyn_peer[368] 	lookupStabilitySig:mean 	0.73508651170414
scalar Network.dyn_peer[368] 	lookupHopsSig:mean 	9.25
scalar Network.dyn_peer[369] 	lookupTimeSig:mean 	1
scalar Network.dyn_peer[369] 	lookupStabilitySig:mean 	0.67895953580737
scalar Network.dyn_peer[369] 	lookupHopsSig:mean 	9.2
scalar Network.dyn_peer[370] 	lookupTimeSig:mean 	1.82
scalar Network.dyn_peer[370] 	lookupStabilitySig:mean 	0.83482758998871
scalar Network.dyn_peer[370] 	lookupHopsSig:mean 	17.4
scalar Network.dyn_peer[371] 	lookupTimeSig:mean 	1.2
scalar Network.dyn_peer[371] 	lookupStabilitySig:mean 	0.46156157056491
scalar Network.dyn_peer[371] 	lookupHopsSig:mean 	11.333333333333
scalar Network.dyn_peer[372] 	lookupTimeSig:mean 	1.15
scalar Network.dyn_peer[372] 	lookupStabilitySig:mean 	0.58090675994754
scalar Network.dyn_peer[372] 	lookupHopsSig:mean 	10.75
scalar Network.dyn_peer[373] 	lookupTimeSig:mean 	4.05
scalar Network.dyn_peer[373] 	lookupStabilitySig:mean 	0.78598789870739
scalar Network.dyn_peer[373] 	lookupHopsSig:mean 	40
scalar Network.dyn_peer[374] 	lookupTimeSig:mean 	1.5333333333333
scalar Network.dyn_peer[374] 	lookupStabilitySig:mean 	0.7298324679335
scalar Network.dyn_peer[374] 	lookupHopsSig:mean 	14.666666666667
scalar Network.dyn_peer[375] 	lookupTimeSig:mean 	1.05
scalar Network.dyn_peer[375] 	lookupStabilitySig:mean 	0.1558441221714
scalar Network.dyn_peer[375] 	lookupHopsSig:mean 	10
scalar Network.dyn_peer[376] 	lookupTimeSig:mean 	1.5375
scalar Network.dyn_peer[376] 	lookupStabilitySig:mean 	0.93941240338609
scalar Network.dyn_peer[376] 	lookupHopsSig:mean 	14.5
scalar Network.dyn_peer[377] 	lookupTimeSig:mean 	1.3875
scalar Network.dyn_peer[377] 	lookupStabilitySig:mean 	0.93913186329883
scalar Network.dyn_peer[377] 	lookupHopsSig:mean 	13
scalar Network.dyn_peer[378] 	lookupTimeSig:mean 	2.6666666666667
scalar Network.dyn_peer[378] 	lookupStabilitySig:mean 	0.67426638305187
scalar Network.dyn_peer[378] 	lookupHopsSig:mean 	26
scalar Network.dyn_peer[379] 	lookupTimeSig:mean 	1.125
scalar Network.dyn_peer[379] 	lookupStabilitySig:mean 	0.58498444594443
scalar Network.dyn_peer[379] 	lookupHopsSig:mean 	10.5
scalar Network.dyn_peer[380] 	lookupTimeSig:mean 	1.19
scalar Network.dyn_peer[380] 	lookupStabilitySig:mean 	0.80887935403734
scalar Network.dyn_peer[380] 	lookupHopsSig:mean 	11
scalar Network.dyn_peer[381] 	lookupTimeSig:mean 	1.3125
scalar Network.dyn_peer[381] 	lookupStabilitySig:mean 	0.77666430175304
scalar Network.dyn_peer[381] 	lookupHopsSig:mean 	12.25
scalar Network.dyn_peer[382] 	lookupTimeSig:mean 	1.3333333333333
scalar Network.dyn_peer[382] 	lookupStabilitySig:mean 	0.94202524803889
scalar Network.dyn_peer[382] 	lookupHopsSig:mean 	12.416666666667
scalar Network.dyn_peer[383] 	lookupTimeSig:mean 	1.14
scalar Network.dyn_peer[383] 	lookupStabilitySig:mean 	0.74842251241207
scalar Network.dyn_peer[383] 	lookupHopsSig:mean 	10.6
scalar Network.dyn_peer[384] 	lookupTimeSig:mean 	1.95
scalar Network.dyn_peer[384] 	lookupStabilitySig:mean 	0.80249770451337
scalar Network.dyn_peer[384] 	lookupHopsSig:mean 	18.75
scalar Network.dyn_peer[385] 	lookupTimeSig:mean 	1.58
scalar Network.dyn_peer[385] 	lookupStabilitySig:mean 	0.80012237206101
scalar Network.dyn_peer[385] 	lookupHopsSig:mean 	15
scalar Network.dyn_peer[386] 	lookupTimeSig:mean 	0.78571428571429
scalar Network.dyn_peer[386] 	lookupStabilitySig:mean 	0.87190938504812
scalar Network.dyn_peer[386] 	lookupHopsSig:mean 	6.9285714285714
scalar Network.dyn_peer[387] 	lookupTimeSig:mean 	1.6
scalar Network.dyn_peer[387] 	lookupStabilitySig:mean 	0.92753386497498
scalar Network.dyn_peer[387] 	lookupHopsSig:mean 	15.1
scalar Network.dyn_peer[388] 	lookupTimeSig:mean 	2
scalar Network.dyn_peer[388] 	lookupStabilitySig:mean 	0.51249998807907
scalar Network.dyn_peer[388] 	lookupHopsSig:mean 	19.5
scalar Network.dyn_peer[389] 	lookupTimeSig:mean 	0.82
scalar Network.dyn_peer[389] 	lookupStabilitySig:mean 	0.66526676900685
scalar Network.dyn_peer[389] 	lookupHopsSig:mean 	7.4
scalar Network.dyn_peer[390] 	lookupTimeSig:mean 	1.0636363636364
scalar Network.dyn_peer[390] 	lookupStabilitySig:mean 	0.95144263947044
scalar Network.dyn_peer[390] 	lookupHopsSig:mean 	9.7272727272727
scalar Network.dyn_peer[391] 	lookupTimeSig:mean 	1.0076923076923
scalar Network.dyn_peer[391] 	lookupStabilitySig:mean 	0.8970853289446
scalar Network.dyn_peer[391] 	lookupHopsSig:mean 	9.1538461538462
scalar Network.dyn_peer[392] 	lookupTimeSig:mean 	1.775
scalar Network.dyn_peer[392] 	lookupStabilitySig:mean 	0.80145853385329
scalar Network.dyn_peer[392] 	lookupHopsSig:mean 	17
scalar Network.dyn_peer[393] 	lookupTimeSig:mean 	2.2
scalar Network.dyn_peer[393] 	lookupStabilitySig:mean 	0.82106472086161
scalar Network.dyn_peer[393] 	lookupHopsSig:mean 	21.25
scalar Network.dyn_peer[394] 	lookupTimeSig:mean 	1.15
scalar Network.dyn_peer[394] 	lookupStabilitySig:mean 	0.5057147461921
scalar Network.dyn_peer[394] 	lookupHopsSig:mean 	10.75
scalar Network.dyn_peer[395] 	lookupTimeSig:mean 	2.1
scalar Network.dyn_peer[395] 	lookupStabilitySig:mean 	0.72735396623611
scalar Network.dyn_peer[395] 	lookupHopsSig:mean 	20.2
scalar Network.dyn_peer[396] 	lookupTimeSig:mean 	0.73
scalar Network.dyn_peer[396] 	lookupStabilitySig:mean 	0.87267977949232
scalar Network.dyn_peer[396] 	lookupHopsSig:mean 	6.4
scalar Network.dyn_peer[397] 	lookupTimeSig:mean 	1.5833333333333
scalar Network.dyn_peer[397] 	lookupStabilitySig:mean 	0.8286370607093
scalar Network.dyn_peer[397] 	lookupHopsSig:mean 	15
scalar Network.dyn_peer[398] 	lookupTimeSig:mean 	1.55
scalar Network.dyn_peer[398] 	lookupStabilitySig:mean 	0.83773079390327
scalar Network.dyn_peer[398] 	lookupHopsSig:mean 	14.666666666667
scalar Network.dyn_peer[399] 	lookupTimeSig:mean 	1.0125
scalar Network.dyn_peer[399] 	lookupStabilitySig:mean 	0.78050129499752
scalar Network.dyn_peer[399] 	lookupHopsSig:mean 	9.25
scalar Network.dyn_peer[400] 	lookupTimeSig:mean 	-nan
scalar Network.dyn_peer[400] 	lookupStabilitySig:mean 	-nan
scalar Network.dyn_peer[400] 	lookupHopsSig:mean 	-nan
scalar Network.dyn_peer[401] 	lookupTimeSig:mean 	-nan
scalar Network.dyn_peer[401] 	lookupStabilitySig:mean 	-nan
scalar Network.dyn_peer[401] 	lookupHopsSig:mean 	-nan
scalar Network.dyn_peer[402] 	lookupTimeSig:mean 	-nan
scalar Network.dyn_peer[402] 	lookupStabilitySig:mean 	-nan
scalar Network.dyn_peer[402] 	lookupHopsSig:mean 	-nan
scalar Network.dyn_peer[403] 	lookupTimeSig:mean 	-nan
scalar Network.dyn_peer[403] 	lookupStabilitySig:mean 	-nan
scalar Network.dyn_peer[403] 	lookupHopsSig:mean 	-nan
scalar Network.dyn_peer[404] 	lookupTimeSig:mean 	-nan
scalar Network.dyn_peer[404] 	lookupStabilitySig:mean 	-nan
scalar Network.dyn_peer[404] 	lookupHopsSig:mean 	-nan
scalar Network.dyn_peer[405] 	lookupTimeSig:mean 	-nan
scalar Network.dyn_peer[405] 	lookupStabilitySig:mean 	-nan
scalar Network.dyn_peer[405] 	lookupHopsSig:mean 	-nan
scalar Network.dyn_peer[406] 	lookupTimeSig:mean 	-nan
scalar Network.dyn_peer[406] 	lookupStabilitySig:mean 	-nan
scalar Network.dyn_peer[406] 	lookupHopsSig:mean 	-nan
scalar Network.dyn_peer[407] 	lookupTimeSig:mean 	-nan
scalar Network.dyn_peer[407] 	lookupStabilitySig:mean 	-nan
scalar Network.dyn_peer[407] 	lookupHopsSig:mean 	-nan
scalar Network.dyn_peer[408] 	lookupTimeSig:mean 	-nan
scalar Network.dyn_peer[408] 	lookupStabilitySig:mean 	-nan
scalar Network.dyn_peer[408] 	lookupHopsSig:mean 	-nan
scalar Network.dyn_peer[409] 	lookupTimeSig:mean 	-nan
scalar Network.dyn_peer[409] 	lookupStabilitySig:mean 	-nan
scalar Network.dyn_peer[409] 	lookupHopsSig:mean 	-nan
scalar Network.dyn_peer[410] 	lookupTimeSig:mean 	-nan
scalar Network.dyn_peer[410] 	lookupStabilitySig:mean 	-nan
scalar Network.dyn_peer[410] 	lookupHopsSig:mean 	-nan
scalar Network.dyn_peer[411] 	lookupTimeSig:mean 	-nan
scalar Network.dyn_peer[411] 	lookupStabilitySig:mean 	-nan
scalar Network.dyn_peer[411] 	lookupHopsSig:mean 	-nan
scalar Network.dyn_peer[412] 	lookupTimeSig:mean 	-nan
scalar Network.dyn_peer[412] 	lookupStabilitySig:mean 	-nan
scalar Network.dyn_peer[412] 	lookupHopsSig:mean 	-nan
scalar Network.dyn_peer[413] 	lookupTimeSig:mean 	-nan
scalar Network.dyn_peer[413] 	lookupStabilitySig:mean 	-nan
scalar Network.dyn_peer[413] 	lookupHopsSig:mean 	-nan
scalar Network.dyn_peer[414] 	lookupTimeSig:mean 	-nan
scalar Network.dyn_peer[414] 	lookupStabilitySig:mean 	-nan
scalar Network.dyn_peer[414] 	lookupHopsSig:mean 	-nan
scalar Network.dyn_peer[415] 	lookupTimeSig:mean 	-nan
scalar Network.dyn_peer[415] 	lookupStabilitySig:mean 	-nan
scalar Network.dyn_peer[415] 	lookupHopsSig:mean 	-nan
scalar Network.dyn_peer[416] 	lookupTimeSig:mean 	-nan
scalar Network.dyn_peer[416] 	lookupStabilitySig:mean 	-nan
scalar Network.dyn_peer[416] 	lookupHopsSig:mean 	-nan
scalar Network.dyn_peer[417] 	lookupTimeSig:mean 	-nan
scalar Network.dyn_peer[417] 	lookupStabilitySig:mean 	-nan
scalar Network.dyn_peer[417] 	lookupHopsSig:mean 	-nan
scalar Network.dyn_peer[418] 	lookupTimeSig:mean 	-nan
scalar Network.dyn_peer[418] 	lookupStabilitySig:mean 	-nan
scalar Network.dyn_peer[418] 	lookupHopsSig:mean 	-nan
scalar Network.dyn_peer[419] 	lookupTimeSig:mean 	-nan
scalar Network.dyn_peer[419] 	lookupStabilitySig:mean 	-nan
scalar Network.dyn_peer[419] 	lookupHopsSig:mean 	-nan
scalar Network.dyn_peer[420] 	lookupTimeSig:mean 	-nan
scalar Network.dyn_peer[420] 	lookupStabilitySig:mean 	-nan
scalar Network.dyn_peer[420] 	lookupHopsSig:mean 	-nan
scalar Network.dyn_peer[421] 	lookupTimeSig:mean 	-nan
scalar Network.dyn_peer[421] 	lookupStabilitySig:mean 	-nan
scalar Network.dyn_peer[421] 	lookupHopsSig:mean 	-nan
scalar Network.dyn_peer[422] 	lookupTimeSig:mean 	-nan
scalar Network.dyn_peer[422] 	lookupStabilitySig:mean 	-nan
scalar Network.dyn_peer[422] 	lookupHopsSig:mean 	-nan
scalar Network.dyn_peer[423] 	lookupTimeSig:mean 	-nan
scalar Network.dyn_peer[423] 	lookupStabilitySig:mean 	-nan
scalar Network.dyn_peer[423] 	lookupHopsSig:mean 	-nan
scalar Network.dyn_peer[424] 	lookupTimeSig:mean 	-nan
scalar Network.dyn_peer[424] 	lookupStabilitySig:mean 	-nan
scalar Network.dyn_peer[424] 	lookupHopsSig:mean 	-nan
scalar Network.dyn_peer[425] 	lookupTimeSig:mean 	-nan
scalar Network.dyn_peer[425] 	lookupStabilitySig:mean 	-nan
scalar Network.dyn_peer[425] 	lookupHopsSig:mean 	-nan
[...]
scalar Network.dyn_peer[883] 	lookupTimeSig:mean 	-nan
scalar Network.dyn_peer[883] 	lookupStabilitySig:mean 	-nan
scalar Network.dyn_peer[883] 	lookupHopsSig:mean 	-nan
scalar Network.dyn_peer[884] 	lookupTimeSig:mean 	-nan
scalar Network.dyn_peer[884] 	lookupStabilitySig:mean 	-nan
scalar Network.dyn_peer[884] 	lookupHopsSig:mean 	-nan
scalar Network.dyn_peer[885] 	lookupTimeSig:mean 	-nan
scalar Network.dyn_peer[885] 	lookupStabilitySig:mean 	-nan
scalar Network.dyn_peer[885] 	lookupHopsSig:mean 	-nan
scalar Network.dyn_peer[886] 	lookupTimeSig:mean 	-nan
scalar Network.dyn_peer[886] 	lookupStabilitySig:mean 	-nan
scalar Network.dyn_peer[886] 	lookupHopsSig:mean 	-nan
scalar Network.dyn_peer[887] 	lookupTimeSig:mean 	-nan
scalar Network.dyn_peer[887] 	lookupStabilitySig:mean 	-nan
scalar Network.dyn_peer[887] 	lookupHopsSig:mean 	-nan
scalar Network.dyn_peer[888] 	lookupTimeSig:mean 	-nan
scalar Network.dyn_peer[888] 	lookupStabilitySig:mean 	-nan
scalar Network.dyn_peer[888] 	lookupHopsSig:mean 	-nan
scalar Network.dyn_peer[889] 	lookupTimeSig:mean 	-nan
scalar Network.dyn_peer[889] 	lookupStabilitySig:mean 	-nan
scalar Network.dyn_peer[889] 	lookupHopsSig:mean 	-nan
scalar Network.dyn_peer[890] 	lookupTimeSig:mean 	-nan
scalar Network.dyn_peer[890] 	lookupStabilitySig:mean 	-nan
scalar Network.dyn_peer[890] 	lookupHopsSig:mean 	-nan
scalar Network.dyn_peer[891] 	lookupTimeSig:mean 	-nan
scalar Network.dyn_peer[891] 	lookupStabilitySig:mean 	-nan
scalar Network.dyn_peer[891] 	lookupHopsSig:mean 	-nan
scalar Network.dyn_peer[892] 	lookupTimeSig:mean 	-nan
scalar Network.dyn_peer[892] 	lookupStabilitySig:mean 	-nan
scalar Network.dyn_peer[892] 	lookupHopsSig:mean 	-nan
scalar Network.dyn_peer[893] 	lookupTimeSig:mean 	-nan
scalar Network.dyn_peer[893] 	lookupStabilitySig:mean 	-nan
scalar Network.dyn_peer[893] 	lookupHopsSig:mean 	-nan
scalar Network.dyn_peer[894] 	lookupTimeSig:mean 	-nan
scalar Network.dyn_peer[894] 	lookupStabilitySig:mean 	-nan
scalar Network.dyn_peer[894] 	lookupHopsSig:mean 	-nan
scalar Network.dyn_peer[895] 	lookupTimeSig:mean 	-nan
scalar Network.dyn_peer[895] 	lookupStabilitySig:mean 	-nan
scalar Network.dyn_peer[895] 	lookupHopsSig:mean 	-nan
scalar Network.dyn_peer[896] 	lookupTimeSig:mean 	-nan
scalar Network.dyn_peer[896] 	lookupStabilitySig:mean 	-nan
scalar Network.dyn_peer[896] 	lookupHopsSig:mean 	-nan
scalar Network.dyn_peer[897] 	lookupTimeSig:mean 	-nan
scalar Network.dyn_peer[897] 	lookupStabilitySig:mean 	-nan
scalar Network.dyn_peer[897] 	lookupHopsSig:mean 	-nan
scalar Network.dyn_peer[898] 	lookupTimeSig:mean 	-nan
scalar Network.dyn_peer[898] 	lookupStabilitySig:mean 	-nan
scalar Network.dyn_peer[898] 	lookupHopsSig:mean 	-nan
scalar Network.dyn_peer[899] 	lookupTimeSig:mean 	-nan
scalar Network.dyn_peer[899] 	lookupStabilitySig:mean 	-nan
scalar Network.dyn_peer[899] 	lookupHopsSig:mean 	-nan
scalar Network.dyn_peer[900] 	lookupTimeSig:mean 	-nan
scalar Network.dyn_peer[900] 	lookupStabilitySig:mean 	-nan
scalar Network.dyn_peer[900] 	lookupHopsSig:mean 	-nan
scalar Network.dyn_peer[901] 	lookupTimeSig:mean 	-nan
scalar Network.dyn_peer[901] 	lookupStabilitySig:mean 	-nan
scalar Network.dyn_peer[901] 	lookupHopsSig:mean 	-nan
scalar Network.dyn_peer[902] 	lookupTimeSig:mean 	-nan
scalar Network.dyn_peer[902] 	lookupStabilitySig:mean 	-nan
scalar Network.dyn_peer[902] 	lookupHopsSig:mean 	-nan
scalar Network.dyn_peer[903] 	lookupTimeSig:mean 	-nan
scalar Network.dyn_peer[903] 	lookupStabilitySig:mean 	-nan
scalar Network.dyn_peer[903] 	lookupHopsSig:mean 	-nan
scalar Network.dyn_peer[904] 	lookupTimeSig:mean 	-nan
scalar Network.dyn_peer[904] 	lookupStabilitySig:mean 	-nan
scalar Network.dyn_peer[904] 	lookupHopsSig:mean 	-nan
scalar Network.dyn_peer[905] 	lookupTimeSig:mean 	-nan
scalar Network.dyn_peer[905] 	lookupStabilitySig:mean 	-nan
scalar Network.dyn_peer[905] 	lookupHopsSig:mean 	-nan
scalar Network.dyn_peer[906] 	lookupTimeSig:mean 	-nan
scalar Network.dyn_peer[906] 	lookupStabilitySig:mean 	-nan
scalar Network.dyn_peer[906] 	lookupHopsSig:mean 	-nan
scalar Network.dyn_peer[907] 	lookupTimeSig:mean 	-nan
scalar Network.dyn_peer[907] 	lookupStabilitySig:mean 	-nan
scalar Network.dyn_peer[907] 	lookupHopsSig:mean 	-nan
scalar Network.dyn_peer[908] 	lookupTimeSig:mean 	-nan
scalar Network.dyn_peer[908] 	lookupStabilitySig:mean 	-nan
scalar Network.dyn_peer[908] 	lookupHopsSig:mean 	-nan
scalar Network.dyn_peer[909] 	lookupTimeSig:mean 	-nan
scalar Network.dyn_peer[909] 	lookupStabilitySig:mean 	-nan
scalar Network.dyn_peer[909] 	lookupHopsSig:mean 	-nan
scalar Network.dyn_peer[910] 	lookupTimeSig:mean 	-nan
scalar Network.dyn_peer[910] 	lookupStabilitySig:mean 	-nan
scalar Network.dyn_peer[910] 	lookupHopsSig:mean 	-nan
scalar Network.dyn_peer[911] 	lookupTimeSig:mean 	-nan
scalar Network.dyn_peer[911] 	lookupStabilitySig:mean 	-nan
scalar Network.dyn_peer[911] 	lookupHopsSig:mean 	-nan
scalar Network.dyn_peer[912] 	lookupTimeSig:mean 	-nan
scalar Network.dyn_peer[912] 	lookupStabilitySig:mean 	-nan
scalar Network.dyn_peer[912] 	lookupHopsSig:mean 	-nan
scalar Network.dyn_peer[913] 	lookupTimeSig:mean 	-nan
scalar Network.dyn_peer[913] 	lookupStabilitySig:mean 	-nan
scalar Network.dyn_peer[913] 	lookupHopsSig:mean 	-nan
scalar Network.dyn_peer[914] 	lookupTimeSig:mean 	-nan
scalar Network.dyn_peer[914] 	lookupStabilitySig:mean 	-nan
scalar Network.dyn_peer[914] 	lookupHopsSig:mean 	-nan
scalar Network.dyn_peer[915] 	lookupTimeSig:mean 	-nan
scalar Network.dyn_peer[915] 	lookupStabilitySig:mean 	-nan
scalar Network.dyn_peer[915] 	lookupHopsSig:mean 	-nan
scalar Network.dyn_peer[916] 	lookupTimeSig:mean 	-nan
scalar Network.dyn_peer[916] 	lookupStabilitySig:mean 	-nan
scalar Network.dyn_peer[916] 	lookupHopsSig:mean 	-nan
scalar Network.dyn_peer[917] 	lookupTimeSig:mean 	-nan
scalar Network.dyn_peer[917] 	lookupStabilitySig:mean 	-nan
scalar Network.dyn_peer[917] 	lookupHopsSig:mean 	-nan
scalar Network.dyn_peer[918] 	lookupTimeSig:mean 	-nan
scalar Network.dyn_peer[918] 	lookupStabilitySig:mean 	-nan
scalar Network.dyn_peer[918] 	lookupHopsSig:mean 	-nan
scalar Network.dyn_peer[919] 	lookupTimeSig:mean 	-nan
scalar Network.dyn_peer[919] 	lookupStabilitySig:mean 	-nan
scalar Network.dyn_peer[919] 	lookupHopsSig:mean 	-nan
scalar Network.dyn_peer[920] 	lookupTimeSig:mean 	-nan
scalar Network.dyn_peer[920] 	lookupStabilitySig:mean 	-nan
scalar Network.dyn_peer[920] 	lookupHopsSig:mean 	-nan
scalar Network.dyn_peer[921] 	lookupTimeSig:mean 	-nan
scalar Network.dyn_peer[921] 	lookupStabilitySig:mean 	-nan
scalar Network.dyn_peer[921] 	lookupHopsSig:mean 	-nan
scalar Network.dyn_peer[922] 	lookupTimeSig:mean 	-nan
scalar Network.dyn_peer[922] 	lookupStabilitySig:mean 	-nan
scalar Network.dyn_peer[922] 	lookupHopsSig:mean 	-nan
scalar Network.dyn_peer[923] 	lookupTimeSig:mean 	-nan
scalar Network.dyn_peer[923] 	lookupStabilitySig:mean 	-nan
scalar Network.dyn_peer[923] 	lookupHopsSig:mean 	-nan
scalar Network.dyn_peer[924] 	lookupTimeSig:mean 	-nan
scalar Network.dyn_peer[924] 	lookupStabilitySig:mean 	-nan
scalar Network.dyn_peer[924] 	lookupHopsSig:mean 	-nan
scalar Network.dyn_peer[925] 	lookupTimeSig:mean 	-nan
scalar Network.dyn_peer[925] 	lookupStabilitySig:mean 	-nan
scalar Network.dyn_peer[925] 	lookupHopsSig:mean 	-nan
scalar Network.dyn_peer[926] 	lookupTimeSig:mean 	-nan
scalar Network.dyn_peer[926] 	lookupStabilitySig:mean 	-nan
scalar Network.dyn_peer[926] 	lookupHopsSig:mean 	-nan
scalar Network.dyn_peer[927] 	lookupTimeSig:mean 	-nan
scalar Network.dyn_peer[927] 	lookupStabilitySig:mean 	-nan
scalar Network.dyn_peer[927] 	lookupHopsSig:mean 	-nan
scalar Network.dyn_peer[928] 	lookupTimeSig:mean 	-nan
scalar Network.dyn_peer[928] 	lookupStabilitySig:mean 	-nan
scalar Network.dyn_peer[928] 	lookupHopsSig:mean 	-nan
scalar Network.dyn_peer[929] 	lookupTimeSig:mean 	-nan
scalar Network.dyn_peer[929] 	lookupStabilitySig:mean 	-nan
scalar Network.dyn_peer[929] 	lookupHopsSig:mean 	-nan
scalar Network.dyn_peer[930] 	lookupTimeSig:mean 	-nan
scalar Network.dyn_peer[930] 	lookupStabilitySig:mean 	-nan
scalar Network.dyn_peer[930] 	lookupHopsSig:mean 	-nan
scalar Network.dyn_peer[931] 	lookupTimeSig:mean 	-nan
scalar Network.dyn_peer[931] 	lookupStabilitySig:mean 	-nan
scalar Network.dyn_peer[931] 	lookupHopsSig:mean 	-nan
scalar Network.dyn_peer[932] 	lookupTimeSig:mean 	-nan
scalar Network.dyn_peer[932] 	lookupStabilitySig:mean 	-nan
scalar Network.dyn_peer[932] 	lookupHopsSig:mean 	-nan
scalar Network.dyn_peer[933] 	lookupTimeSig:mean 	-nan
scalar Network.dyn_peer[933] 	lookupStabilitySig:mean 	-nan
scalar Network.dyn_peer[933] 	lookupHopsSig:mean 	-nan
scalar Network.dyn_peer[934] 	lookupTimeSig:mean 	-nan
scalar Network.dyn_peer[934] 	lookupStabilitySig:mean 	-nan
scalar Network.dyn_peer[934] 	lookupHopsSig:mean 	-nan
scalar Network.dyn_peer[935] 	lookupTimeSig:mean 	-nan
scalar Network.dyn_peer[935] 	lookupStabilitySig:mean 	-nan
scalar Network.dyn_peer[935] 	lookupHopsSig:mean 	-nan
scalar Network.dyn_peer[936] 	lookupTimeSig:mean 	-nan
scalar Network.dyn_peer[936] 	lookupStabilitySig:mean 	-nan
scalar Network.dyn_peer[936] 	lookupHopsSig:mean 	-nan
scalar Network.dyn_peer[937] 	lookupTimeSig:mean 	-nan
scalar Network.dyn_peer[937] 	lookupStabilitySig:mean 	-nan
scalar Network.dyn_peer[937] 	lookupHopsSig:mean 	-nan
scalar Network.dyn_peer[938] 	lookupTimeSig:mean 	-nan
scalar Network.dyn_peer[938] 	lookupStabilitySig:mean 	-nan
scalar Network.dyn_peer[938] 	lookupHopsSig:mean 	-nan
scalar Network.dyn_peer[939] 	lookupTimeSig:mean 	-nan
scalar Network.dyn_peer[939] 	lookupStabilitySig:mean 	-nan
scalar Network.dyn_peer[939] 	lookupHopsSig:mean 	-nan
scalar Network.dyn_peer[940] 	lookupTimeSig:mean 	-nan
scalar Network.dyn_peer[940] 	lookupStabilitySig:mean 	-nan
scalar Network.dyn_peer[940] 	lookupHopsSig:mean 	-nan
scalar Network.dyn_peer[941] 	lookupTimeSig:mean 	-nan
scalar Network.dyn_peer[941] 	lookupStabilitySig:mean 	-nan
scalar Network.dyn_peer[941] 	lookupHopsSig:mean 	-nan
scalar Network.dyn_peer[942] 	lookupTimeSig:mean 	-nan
scalar Network.dyn_peer[942] 	lookupStabilitySig:mean 	-nan
scalar Network.dyn_peer[942] 	lookupHopsSig:mean 	-nan
scalar Network.dyn_peer[943] 	lookupTimeSig:mean 	-nan
scalar Network.dyn_peer[943] 	lookupStabilitySig:mean 	-nan
scalar Network.dyn_peer[943] 	lookupHopsSig:mean 	-nan
scalar Network.dyn_peer[944] 	lookupTimeSig:mean 	-nan
scalar Network.dyn_peer[944] 	lookupStabilitySig:mean 	-nan
scalar Network.dyn_peer[944] 	lookupHopsSig:mean 	-nan
scalar Network.dyn_peer[945] 	lookupTimeSig:mean 	-nan
scalar Network.dyn_peer[945] 	lookupStabilitySig:mean 	-nan
scalar Network.dyn_peer[945] 	lookupHopsSig:mean 	-nan
scalar Network.dyn_peer[946] 	lookupTimeSig:mean 	-nan
scalar Network.dyn_peer[946] 	lookupStabilitySig:mean 	-nan
scalar Network.dyn_peer[946] 	lookupHopsSig:mean 	-nan
scalar Network.dyn_peer[947] 	lookupTimeSig:mean 	-nan
scalar Network.dyn_peer[947] 	lookupStabilitySig:mean 	-nan
scalar Network.dyn_peer[947] 	lookupHopsSig:mean 	-nan
scalar Network.dyn_peer[948] 	lookupTimeSig:mean 	-nan
scalar Network.dyn_peer[948] 	lookupStabilitySig:mean 	-nan
scalar Network.dyn_peer[948] 	lookupHopsSig:mean 	-nan
scalar Network.dyn_peer[949] 	lookupTimeSig:mean 	-nan
scalar Network.dyn_peer[949] 	lookupStabilitySig:mean 	-nan
scalar Network.dyn_peer[949] 	lookupHopsSig:mean 	-nan
scalar Network.dyn_peer[950] 	lookupTimeSig:mean 	-nan
scalar Network.dyn_peer[950] 	lookupStabilitySig:mean 	-nan
scalar Network.dyn_peer[950] 	lookupHopsSig:mean 	-nan
scalar Network.dyn_peer[951] 	lookupTimeSig:mean 	-nan
scalar Network.dyn_peer[951] 	lookupStabilitySig:mean 	-nan
scalar Network.dyn_peer[951] 	lookupHopsSig:mean 	-nan
scalar Network.dyn_peer[952] 	lookupTimeSig:mean 	-nan
scalar Network.dyn_peer[952] 	lookupStabilitySig:mean 	-nan
scalar Network.dyn_peer[952] 	lookupHopsSig:mean 	-nan
scalar Network.dyn_peer[953] 	lookupTimeSig:mean 	-nan
scalar Network.dyn_peer[953] 	lookupStabilitySig:mean 	-nan
scalar Network.dyn_peer[953] 	lookupHopsSig:mean 	-nan
scalar Network.dyn_peer[954] 	lookupTimeSig:mean 	-nan
scalar Network.dyn_peer[954] 	lookupStabilitySig:mean 	-nan
scalar Network.dyn_peer[954] 	lookupHopsSig:mean 	-nan
scalar Network.dyn_peer[955] 	lookupTimeSig:mean 	-nan
scalar Network.dyn_peer[955] 	lookupStabilitySig:mean 	-nan
scalar Network.dyn_peer[955] 	lookupHopsSig:mean 	-nan
scalar Network.dyn_peer[956] 	lookupTimeSig:mean 	-nan
scalar Network.dyn_peer[956] 	lookupStabilitySig:mean 	-nan
scalar Network.dyn_peer[956] 	lookupHopsSig:mean 	-nan
scalar Network.dyn_peer[957] 	lookupTimeSig:mean 	-nan
scalar Network.dyn_peer[957] 	lookupStabilitySig:mean 	-nan
scalar Network.dyn_peer[957] 	lookupHopsSig:mean 	-nan
scalar Network.dyn_peer[958] 	lookupTimeSig:mean 	-nan
scalar Network.dyn_peer[958] 	lookupStabilitySig:mean 	-nan
scalar Network.dyn_peer[958] 	lookupHopsSig:mean 	-nan
scalar Network.dyn_peer[959] 	lookupTimeSig:mean 	-nan
scalar Network.dyn_peer[959] 	lookupStabilitySig:mean 	-nan
scalar Network.dyn_peer[959] 	lookupHopsSig:mean 	-nan
scalar Network.dyn_peer[960] 	lookupTimeSig:mean 	-nan
scalar Network.dyn_peer[960] 	lookupStabilitySig:mean 	-nan
scalar Network.dyn_peer[960] 	lookupHopsSig:mean 	-nan
scalar Network.dyn_peer[961] 	lookupTimeSig:mean 	-nan
scalar Network.dyn_peer[961] 	lookupStabilitySig:mean 	-nan
scalar Network.dyn_peer[961] 	lookupHopsSig:mean 	-nan
scalar Network.dyn_peer[962] 	lookupTimeSig:mean 	-nan
scalar Network.dyn_peer[962] 	lookupStabilitySig:mean 	-nan
scalar Network.dyn_peer[962] 	lookupHopsSig:mean 	-nan
scalar Network.dyn_peer[963] 	lookupTimeSig:mean 	-nan
scalar Network.dyn_peer[963] 	lookupStabilitySig:mean 	-nan
scalar Network.dyn_peer[963] 	lookupHopsSig:mean 	-nan
scalar Network.dyn_peer[964] 	lookupTimeSig:mean 	-nan
scalar Network.dyn_peer[964] 	lookupStabilitySig:mean 	-nan
scalar Network.dyn_peer[964] 	lookupHopsSig:mean 	-nan
scalar Network.dyn_peer[965] 	lookupTimeSig:mean 	-nan
scalar Network.dyn_peer[965] 	lookupStabilitySig:mean 	-nan
scalar Network.dyn_peer[965] 	lookupHopsSig:mean 	-nan
scalar Network.dyn_peer[966] 	lookupTimeSig:mean 	-nan
scalar Network.dyn_peer[966] 	lookupStabilitySig:mean 	-nan
scalar Network.dyn_peer[966] 	lookupHopsSig:mean 	-nan
scalar Network.dyn_peer[967] 	lookupTimeSig:mean 	-nan
scalar Network.dyn_peer[967] 	lookupStabilitySig:mean 	-nan
scalar Network.dyn_peer[967] 	lookupHopsSig:mean 	-nan
scalar Network.dyn_peer[968] 	lookupTimeSig:mean 	-nan
scalar Network.dyn_peer[968] 	lookupStabilitySig:mean 	-nan
scalar Network.dyn_peer[968] 	lookupHopsSig:mean 	-nan
scalar Network.dyn_peer[969] 	lookupTimeSig:mean 	-nan
scalar Network.dyn_peer[969] 	lookupStabilitySig:mean 	-nan
scalar Network.dyn_peer[969] 	lookupHopsSig:mean 	-nan
scalar Network.dyn_peer[970] 	lookupTimeSig:mean 	-nan
scalar Network.dyn_peer[970] 	lookupStabilitySig:mean 	-nan
scalar Network.dyn_peer[970] 	lookupHopsSig:mean 	-nan
scalar Network.dyn_peer[971] 	lookupTimeSig:mean 	-nan
scalar Network.dyn_peer[971] 	lookupStabilitySig:mean 	-nan
scalar Network.dyn_peer[971] 	lookupHopsSig:mean 	-nan
scalar Network.dyn_peer[972] 	lookupTimeSig:mean 	-nan
scalar Network.dyn_peer[972] 	lookupStabilitySig:mean 	-nan
scalar Network.dyn_peer[972] 	lookupHopsSig:mean 	-nan
scalar Network.dyn_peer[973] 	lookupTimeSig:mean 	-nan
scalar Network.dyn_peer[973] 	lookupStabilitySig:mean 	-nan
scalar Network.dyn_peer[973] 	lookupHopsSig:mean 	-nan
scalar Network.dyn_peer[974] 	lookupTimeSig:mean 	-nan
scalar Network.dyn_peer[974] 	lookupStabilitySig:mean 	-nan
scalar Network.dyn_peer[974] 	lookupHopsSig:mean 	-nan
scalar Network.dyn_peer[975] 	lookupTimeSig:mean 	-nan
scalar Network.dyn_peer[975] 	lookupStabilitySig:mean 	-nan
scalar Network.dyn_peer[975] 	lookupHopsSig:mean 	-nan
scalar Network.dyn_peer[976] 	lookupTimeSig:mean 	-nan
scalar Network.dyn_peer[976] 	lookupStabilitySig:mean 	-nan
scalar Network.dyn_peer[976] 	lookupHopsSig:mean 	-nan
scalar Network.dyn_peer[977] 	lookupTimeSig:mean 	-nan
scalar Network.dyn_peer[977] 	lookupStabilitySig:mean 	-nan
scalar Network.dyn_peer[977] 	lookupHopsSig:mean 	-nan
scalar Network.dyn_peer[978] 	lookupTimeSig:mean 	-nan
scalar Network.dyn_peer[978] 	lookupStabilitySig:mean 	-nan
scalar Network.dyn_peer[978] 	lookupHopsSig:mean 	-nan
scalar Network.dyn_peer[979] 	lookupTimeSig:mean 	-nan
scalar Network.dyn_peer[979] 	lookupStabilitySig:mean 	-nan
scalar Network.dyn_peer[979] 	lookupHopsSig:mean 	-nan
scalar Network.dyn_peer[980] 	lookupTimeSig:mean 	-nan
scalar Network.dyn_peer[980] 	lookupStabilitySig:mean 	-nan
scalar Network.dyn_peer[980] 	lookupHopsSig:mean 	-nan
scalar Network.dyn_peer[981] 	lookupTimeSig:mean 	-nan
scalar Network.dyn_peer[981] 	lookupStabilitySig:mean 	-nan
scalar Network.dyn_peer[981] 	lookupHopsSig:mean 	-nan
scalar Network.dyn_peer[982] 	lookupTimeSig:mean 	-nan
scalar Network.dyn_peer[982] 	lookupStabilitySig:mean 	-nan
scalar Network.dyn_peer[982] 	lookupHopsSig:mean 	-nan
scalar Network.dyn_peer[983] 	lookupTimeSig:mean 	-nan
scalar Network.dyn_peer[983] 	lookupStabilitySig:mean 	-nan
scalar Network.dyn_peer[983] 	lookupHopsSig:mean 	-nan
scalar Network.dyn_peer[984] 	lookupTimeSig:mean 	-nan
scalar Network.dyn_peer[984] 	lookupStabilitySig:mean 	-nan
scalar Network.dyn_peer[984] 	lookupHopsSig:mean 	-nan
scalar Network.dyn_peer[985] 	lookupTimeSig:mean 	-nan
scalar Network.dyn_peer[985] 	lookupStabilitySig:mean 	-nan
scalar Network.dyn_peer[985] 	lookupHopsSig:mean 	-nan
scalar Network.dyn_peer[986] 	lookupTimeSig:mean 	-nan
scalar Network.dyn_peer[986] 	lookupStabilitySig:mean 	-nan
scalar Network.dyn_peer[986] 	lookupHopsSig:mean 	-nan
scalar Network.dyn_peer[987] 	lookupTimeSig:mean 	-nan
scalar Network.dyn_peer[987] 	lookupStabilitySig:mean 	-nan
scalar Network.dyn_peer[987] 	lookupHopsSig:mean 	-nan
scalar Network.dyn_peer[988] 	lookupTimeSig:mean 	-nan
scalar Network.dyn_peer[988] 	lookupStabilitySig:mean 	-nan
scalar Network.dyn_peer[988] 	lookupHopsSig:mean 	-nan
scalar Network.dyn_peer[989] 	lookupTimeSig:mean 	-nan
scalar Network.dyn_peer[989] 	lookupStabilitySig:mean 	-nan
scalar Network.dyn_peer[989] 	lookupHopsSig:mean 	-nan
scalar Network.dyn_peer[990] 	lookupTimeSig:mean 	-nan
scalar Network.dyn_peer[990] 	lookupStabilitySig:mean 	-nan
scalar Network.dyn_peer[990] 	lookupHopsSig:mean 	-nan
scalar Network.dyn_peer[991] 	lookupTimeSig:mean 	-nan
scalar Network.dyn_peer[991] 	lookupStabilitySig:mean 	-nan
scalar Network.dyn_peer[991] 	lookupHopsSig:mean 	-nan
scalar Network.dyn_peer[992] 	lookupTimeSig:mean 	-nan
scalar Network.dyn_peer[992] 	lookupStabilitySig:mean 	-nan
scalar Network.dyn_peer[992] 	lookupHopsSig:mean 	-nan
scalar Network.dyn_peer[993] 	lookupTimeSig:mean 	-nan
scalar Network.dyn_peer[993] 	lookupStabilitySig:mean 	-nan
scalar Network.dyn_peer[993] 	lookupHopsSig:mean 	-nan
scalar Network.dyn_peer[994] 	lookupTimeSig:mean 	-nan
scalar Network.dyn_peer[994] 	lookupStabilitySig:mean 	-nan
scalar Network.dyn_peer[994] 	lookupHopsSig:mean 	-nan
scalar Network.dyn_peer[995] 	lookupTimeSig:mean 	-nan
scalar Network.dyn_peer[995] 	lookupStabilitySig:mean 	-nan
scalar Network.dyn_peer[995] 	lookupHopsSig:mean 	-nan
scalar Network.dyn_peer[996] 	lookupTimeSig:mean 	-nan
scalar Network.dyn_peer[996] 	lookupStabilitySig:mean 	-nan
scalar Network.dyn_peer[996] 	lookupHopsSig:mean 	-nan
scalar Network.dyn_peer[997] 	lookupTimeSig:mean 	-nan
scalar Network.dyn_peer[997] 	lookupStabilitySig:mean 	-nan
scalar Network.dyn_peer[997] 	lookupHopsSig:mean 	-nan
scalar Network.dyn_peer[998] 	lookupTimeSig:mean 	-nan
scalar Network.dyn_peer[998] 	lookupStabilitySig:mean 	-nan
scalar Network.dyn_peer[998] 	lookupHopsSig:mean 	-nan
scalar Network.dyn_peer[999] 	lookupTimeSig:mean 	-nan
scalar Network.dyn_peer[999] 	lookupStabilitySig:mean 	-nan
scalar Network.dyn_peer[999] 	lookupHopsSig:mean 	-nan
scalar Network.churner 	inGoingSizeSig:mean 	199.00249376559
