version 2
run Stability2-316-20130526-00:55:05-26640
attr configname Stability2
attr datetime 20130526-00:55:05
attr experiment Stability2
attr inifile omnetpp.ini
attr iterationvars $0=1000
attr iterationvars2 "$0=1000, $repetition=16"
attr measurement $0=1000
attr network Network
attr processid 26640
attr repetition 16
attr replication #16
attr resultdir results
attr runnumber 316
attr seedset 316

scalar Network.dyn_peer[0] 	lookupTimeSig:mean 	2.18
scalar Network.dyn_peer[0] 	lookupStabilitySig:mean 	0.57800611630082
scalar Network.dyn_peer[0] 	lookupHopsSig:mean 	21
scalar Network.dyn_peer[1] 	lookupTimeSig:mean 	0.83333333333333
scalar Network.dyn_peer[1] 	lookupStabilitySig:mean 	0.26527778307597
scalar Network.dyn_peer[1] 	lookupHopsSig:mean 	7.6666666666667
scalar Network.dyn_peer[2] 	lookupTimeSig:mean 	2.35
scalar Network.dyn_peer[2] 	lookupStabilitySig:mean 	0.48018371686339
scalar Network.dyn_peer[2] 	lookupHopsSig:mean 	22.75
scalar Network.dyn_peer[3] 	lookupTimeSig:mean 	1.7333333333333
scalar Network.dyn_peer[3] 	lookupStabilitySig:mean 	0.7903456085672
scalar Network.dyn_peer[3] 	lookupHopsSig:mean 	16.5
scalar Network.dyn_peer[4] 	lookupTimeSig:mean 	1.8777777777778
scalar Network.dyn_peer[4] 	lookupStabilitySig:mean 	0.77432281348026
scalar Network.dyn_peer[4] 	lookupHopsSig:mean 	17.888888888889
scalar Network.dyn_peer[5] 	lookupTimeSig:mean 	1.5111111111111
scalar Network.dyn_peer[5] 	lookupStabilitySig:mean 	0.72992613601188
scalar Network.dyn_peer[5] 	lookupHopsSig:mean 	14.222222222222
scalar Network.dyn_peer[6] 	lookupTimeSig:mean 	2.14
scalar Network.dyn_peer[6] 	lookupStabilitySig:mean 	0.47287755459547
scalar Network.dyn_peer[6] 	lookupHopsSig:mean 	20.6
scalar Network.dyn_peer[7] 	lookupTimeSig:mean 	1.5166666666667
scalar Network.dyn_peer[7] 	lookupStabilitySig:mean 	0.65329372696579
scalar Network.dyn_peer[7] 	lookupHopsSig:mean 	14.333333333333
scalar Network.dyn_peer[8] 	lookupTimeSig:mean 	3.1
scalar Network.dyn_peer[8] 	lookupStabilitySig:mean 	0.88773141056299
scalar Network.dyn_peer[8] 	lookupHopsSig:mean 	30.333333333333
scalar Network.dyn_peer[9] 	lookupTimeSig:mean 	1.975
scalar Network.dyn_peer[9] 	lookupStabilitySig:mean 	0.85790450812783
scalar Network.dyn_peer[9] 	lookupHopsSig:mean 	18.875
scalar Network.dyn_peer[10] 	lookupTimeSig:mean 	1.6166666666667
scalar Network.dyn_peer[10] 	lookupStabilitySig:mean 	0.50357040266196
scalar Network.dyn_peer[10] 	lookupHopsSig:mean 	15.333333333333
scalar Network.dyn_peer[11] 	lookupTimeSig:mean 	1.525
scalar Network.dyn_peer[11] 	lookupStabilitySig:mean 	0.55416549369693
scalar Network.dyn_peer[11] 	lookupHopsSig:mean 	14.5
scalar Network.dyn_peer[12] 	lookupTimeSig:mean 	2.825
scalar Network.dyn_peer[12] 	lookupStabilitySig:mean 	0.60792833380401
scalar Network.dyn_peer[12] 	lookupHopsSig:mean 	27.5
scalar Network.dyn_peer[13] 	lookupTimeSig:mean 	3.06
scalar Network.dyn_peer[13] 	lookupStabilitySig:mean 	0.84962975010276
scalar Network.dyn_peer[13] 	lookupHopsSig:mean 	29.8
scalar Network.dyn_peer[14] 	lookupTimeSig:mean 	2.15
scalar Network.dyn_peer[14] 	lookupStabilitySig:mean 	0.59881388396025
scalar Network.dyn_peer[14] 	lookupHopsSig:mean 	20.666666666667
scalar Network.dyn_peer[15] 	lookupTimeSig:mean 	1.38
scalar Network.dyn_peer[15] 	lookupStabilitySig:mean 	0.59242339059711
scalar Network.dyn_peer[15] 	lookupHopsSig:mean 	13
scalar Network.dyn_peer[16] 	lookupTimeSig:mean 	1.5
scalar Network.dyn_peer[16] 	lookupStabilitySig:mean 	0.60701638367027
scalar Network.dyn_peer[16] 	lookupHopsSig:mean 	14.25
scalar Network.dyn_peer[17] 	lookupTimeSig:mean 	1.8
scalar Network.dyn_peer[17] 	lookupStabilitySig:mean 	0.79010570337996
scalar Network.dyn_peer[17] 	lookupHopsSig:mean 	17.1
scalar Network.dyn_peer[18] 	lookupTimeSig:mean 	2.22
scalar Network.dyn_peer[18] 	lookupStabilitySig:mean 	0.75957992486656
scalar Network.dyn_peer[18] 	lookupHopsSig:mean 	21.4
scalar Network.dyn_peer[19] 	lookupTimeSig:mean 	1.9166666666667
scalar Network.dyn_peer[19] 	lookupStabilitySig:mean 	0.86899336202381
scalar Network.dyn_peer[19] 	lookupHopsSig:mean 	18.25
scalar Network.dyn_peer[20] 	lookupTimeSig:mean 	1.8833333333333
scalar Network.dyn_peer[20] 	lookupStabilitySig:mean 	0.81673216974984
scalar Network.dyn_peer[20] 	lookupHopsSig:mean 	18
scalar Network.dyn_peer[21] 	lookupTimeSig:mean 	2.1857142857143
scalar Network.dyn_peer[21] 	lookupStabilitySig:mean 	0.92930136328297
scalar Network.dyn_peer[21] 	lookupHopsSig:mean 	21
scalar Network.dyn_peer[22] 	lookupTimeSig:mean 	1.7166666666667
scalar Network.dyn_peer[22] 	lookupStabilitySig:mean 	0.71184732004379
scalar Network.dyn_peer[22] 	lookupHopsSig:mean 	16.333333333333
scalar Network.dyn_peer[23] 	lookupTimeSig:mean 	2.28
scalar Network.dyn_peer[23] 	lookupStabilitySig:mean 	0.43165881559253
scalar Network.dyn_peer[23] 	lookupHopsSig:mean 	22
scalar Network.dyn_peer[24] 	lookupTimeSig:mean 	1.9333333333333
scalar Network.dyn_peer[24] 	lookupStabilitySig:mean 	0.67600469725827
scalar Network.dyn_peer[24] 	lookupHopsSig:mean 	18.444444444444
scalar Network.dyn_peer[25] 	lookupTimeSig:mean 	1.5
scalar Network.dyn_peer[25] 	lookupStabilitySig:mean 	0.70408919553405
scalar Network.dyn_peer[25] 	lookupHopsSig:mean 	14.142857142857
scalar Network.dyn_peer[26] 	lookupTimeSig:mean 	1.25
scalar Network.dyn_peer[26] 	lookupStabilitySig:mean 	0.27388186054304
scalar Network.dyn_peer[26] 	lookupHopsSig:mean 	11.75
scalar Network.dyn_peer[27] 	lookupTimeSig:mean 	2.9
scalar Network.dyn_peer[27] 	lookupStabilitySig:mean 	0.68309579491615
scalar Network.dyn_peer[27] 	lookupHopsSig:mean 	28.2
scalar Network.dyn_peer[28] 	lookupTimeSig:mean 	1.075
scalar Network.dyn_peer[28] 	lookupStabilitySig:mean 	0.70490816864185
scalar Network.dyn_peer[28] 	lookupHopsSig:mean 	9.875
scalar Network.dyn_peer[29] 	lookupTimeSig:mean 	1.62
scalar Network.dyn_peer[29] 	lookupStabilitySig:mean 	0.47741033434868
scalar Network.dyn_peer[29] 	lookupHopsSig:mean 	15.4
scalar Network.dyn_peer[30] 	lookupTimeSig:mean 	1.7
scalar Network.dyn_peer[30] 	lookupStabilitySig:mean 	0.10404703766108
scalar Network.dyn_peer[30] 	lookupHopsSig:mean 	16.333333333333
scalar Network.dyn_peer[31] 	lookupTimeSig:mean 	3.5
scalar Network.dyn_peer[31] 	lookupStabilitySig:mean 	0.72492492198944
scalar Network.dyn_peer[31] 	lookupHopsSig:mean 	34.333333333333
scalar Network.dyn_peer[32] 	lookupTimeSig:mean 	1.75
scalar Network.dyn_peer[32] 	lookupStabilitySig:mean 	0.95988143997134
scalar Network.dyn_peer[32] 	lookupHopsSig:mean 	16.571428571429
scalar Network.dyn_peer[33] 	lookupTimeSig:mean 	1.5333333333333
scalar Network.dyn_peer[33] 	lookupStabilitySig:mean 	0.31962023675442
scalar Network.dyn_peer[33] 	lookupHopsSig:mean 	14.666666666667
scalar Network.dyn_peer[34] 	lookupTimeSig:mean 	2.6333333333333
scalar Network.dyn_peer[34] 	lookupStabilitySig:mean 	0.23636602361997
scalar Network.dyn_peer[34] 	lookupHopsSig:mean 	25.666666666667
scalar Network.dyn_peer[35] 	lookupTimeSig:mean 	2.1
scalar Network.dyn_peer[35] 	lookupStabilitySig:mean 	0.1882575750351
scalar Network.dyn_peer[35] 	lookupHopsSig:mean 	20.333333333333
scalar Network.dyn_peer[36] 	lookupTimeSig:mean 	1.3
scalar Network.dyn_peer[36] 	lookupStabilitySig:mean 	0.49655183665454
scalar Network.dyn_peer[36] 	lookupHopsSig:mean 	12.2
scalar Network.dyn_peer[37] 	lookupTimeSig:mean 	2.175
scalar Network.dyn_peer[37] 	lookupStabilitySig:mean 	0.77450175676495
scalar Network.dyn_peer[37] 	lookupHopsSig:mean 	21
scalar Network.dyn_peer[38] 	lookupTimeSig:mean 	1.3666666666667
scalar Network.dyn_peer[38] 	lookupStabilitySig:mean 	0.1339285671711
scalar Network.dyn_peer[38] 	lookupHopsSig:mean 	13
scalar Network.dyn_peer[39] 	lookupTimeSig:mean 	2.1571428571429
scalar Network.dyn_peer[39] 	lookupStabilitySig:mean 	0.61352896504104
scalar Network.dyn_peer[39] 	lookupHopsSig:mean 	20.714285714286
scalar Network.dyn_peer[40] 	lookupTimeSig:mean 	2.62
scalar Network.dyn_peer[40] 	lookupStabilitySig:mean 	0.8174368917942
scalar Network.dyn_peer[40] 	lookupHopsSig:mean 	25.4
scalar Network.dyn_peer[41] 	lookupTimeSig:mean 	1.6
scalar Network.dyn_peer[41] 	lookupStabilitySig:mean 	0.2293289800485
scalar Network.dyn_peer[41] 	lookupHopsSig:mean 	15.333333333333
scalar Network.dyn_peer[42] 	lookupTimeSig:mean 	1.5
scalar Network.dyn_peer[42] 	lookupStabilitySig:mean 	0.87813270343468
scalar Network.dyn_peer[42] 	lookupHopsSig:mean 	14.1
scalar Network.dyn_peer[43] 	lookupTimeSig:mean 	1.46
scalar Network.dyn_peer[43] 	lookupStabilitySig:mean 	0.55778921768069
scalar Network.dyn_peer[43] 	lookupHopsSig:mean 	13.8
scalar Network.dyn_peer[44] 	lookupTimeSig:mean 	1.8875
scalar Network.dyn_peer[44] 	lookupStabilitySig:mean 	0.70071763638407
scalar Network.dyn_peer[44] 	lookupHopsSig:mean 	18
scalar Network.dyn_peer[45] 	lookupTimeSig:mean 	2.475
scalar Network.dyn_peer[45] 	lookupStabilitySig:mean 	0.91577180800959
scalar Network.dyn_peer[45] 	lookupHopsSig:mean 	23.875
scalar Network.dyn_peer[46] 	lookupTimeSig:mean 	2.2666666666667
scalar Network.dyn_peer[46] 	lookupStabilitySig:mean 	0.70348232260181
scalar Network.dyn_peer[46] 	lookupHopsSig:mean 	21.777777777778
scalar Network.dyn_peer[47] 	lookupTimeSig:mean 	1.9111111111111
scalar Network.dyn_peer[47] 	lookupStabilitySig:mean 	0.86603847001162
scalar Network.dyn_peer[47] 	lookupHopsSig:mean 	18.222222222222
scalar Network.dyn_peer[48] 	lookupTimeSig:mean 	1.26
scalar Network.dyn_peer[48] 	lookupStabilitySig:mean 	0.36759316921234
scalar Network.dyn_peer[48] 	lookupHopsSig:mean 	11.8
scalar Network.dyn_peer[49] 	lookupTimeSig:mean 	1.6333333333333
scalar Network.dyn_peer[49] 	lookupStabilitySig:mean 	0.23703702290853
scalar Network.dyn_peer[49] 	lookupHopsSig:mean 	15.666666666667
scalar Network.dyn_peer[50] 	lookupTimeSig:mean 	1.7
scalar Network.dyn_peer[50] 	lookupStabilitySig:mean 	0.64976232126355
scalar Network.dyn_peer[50] 	lookupHopsSig:mean 	16.2
scalar Network.dyn_peer[51] 	lookupTimeSig:mean 	2.02
scalar Network.dyn_peer[51] 	lookupStabilitySig:mean 	0.43559082299471
scalar Network.dyn_peer[51] 	lookupHopsSig:mean 	19.4
scalar Network.dyn_peer[52] 	lookupTimeSig:mean 	1.575
scalar Network.dyn_peer[52] 	lookupStabilitySig:mean 	0.81802771613002
scalar Network.dyn_peer[52] 	lookupHopsSig:mean 	15
scalar Network.dyn_peer[53] 	lookupTimeSig:mean 	1.55
scalar Network.dyn_peer[53] 	lookupStabilitySig:mean 	0.28095296397805
scalar Network.dyn_peer[53] 	lookupHopsSig:mean 	14.75
scalar Network.dyn_peer[54] 	lookupTimeSig:mean 	1.8
scalar Network.dyn_peer[54] 	lookupStabilitySig:mean 	0.56710433214903
scalar Network.dyn_peer[54] 	lookupHopsSig:mean 	17.2
scalar Network.dyn_peer[55] 	lookupTimeSig:mean 	1.6875
scalar Network.dyn_peer[55] 	lookupStabilitySig:mean 	0.8087611150404
scalar Network.dyn_peer[55] 	lookupHopsSig:mean 	16
scalar Network.dyn_peer[56] 	lookupTimeSig:mean 	1.7285714285714
scalar Network.dyn_peer[56] 	lookupStabilitySig:mean 	0.86015354176717
scalar Network.dyn_peer[56] 	lookupHopsSig:mean 	16.428571428571
scalar Network.dyn_peer[57] 	lookupTimeSig:mean 	4.25
scalar Network.dyn_peer[57] 	lookupStabilitySig:mean 	0.81217838078737
scalar Network.dyn_peer[57] 	lookupHopsSig:mean 	42
scalar Network.dyn_peer[58] 	lookupTimeSig:mean 	2.4666666666667
scalar Network.dyn_peer[58] 	lookupStabilitySig:mean 	0.14916982750098
scalar Network.dyn_peer[58] 	lookupHopsSig:mean 	24
scalar Network.dyn_peer[59] 	lookupTimeSig:mean 	1.8166666666667
scalar Network.dyn_peer[59] 	lookupStabilitySig:mean 	0.71621576013664
scalar Network.dyn_peer[59] 	lookupHopsSig:mean 	17.333333333333
scalar Network.dyn_peer[60] 	lookupTimeSig:mean 	1.95
scalar Network.dyn_peer[60] 	lookupStabilitySig:mean 	0.81104285642505
scalar Network.dyn_peer[60] 	lookupHopsSig:mean 	18.75
scalar Network.dyn_peer[61] 	lookupTimeSig:mean 	2.1
scalar Network.dyn_peer[61] 	lookupStabilitySig:mean 	0.30026561021805
scalar Network.dyn_peer[61] 	lookupHopsSig:mean 	20.25
scalar Network.dyn_peer[62] 	lookupTimeSig:mean 	0.95333333333333
scalar Network.dyn_peer[62] 	lookupStabilitySig:mean 	0.81811162169712
scalar Network.dyn_peer[62] 	lookupHopsSig:mean 	8.6
scalar Network.dyn_peer[63] 	lookupTimeSig:mean 	2.9
scalar Network.dyn_peer[63] 	lookupStabilitySig:mean 	0.45357874035835
scalar Network.dyn_peer[63] 	lookupHopsSig:mean 	28.333333333333
scalar Network.dyn_peer[64] 	lookupTimeSig:mean 	1.7
scalar Network.dyn_peer[64] 	lookupStabilitySig:mean 	0.48613178133965
scalar Network.dyn_peer[64] 	lookupHopsSig:mean 	16.2
scalar Network.dyn_peer[65] 	lookupTimeSig:mean 	2.25
scalar Network.dyn_peer[65] 	lookupStabilitySig:mean 	0.31994674354792
scalar Network.dyn_peer[65] 	lookupHopsSig:mean 	21.75
scalar Network.dyn_peer[66] 	lookupTimeSig:mean 	1.875
scalar Network.dyn_peer[66] 	lookupStabilitySig:mean 	0.28201480582356
scalar Network.dyn_peer[66] 	lookupHopsSig:mean 	18
scalar Network.dyn_peer[67] 	lookupTimeSig:mean 	3.025
scalar Network.dyn_peer[67] 	lookupStabilitySig:mean 	0.85292582958937
scalar Network.dyn_peer[67] 	lookupHopsSig:mean 	29.5
scalar Network.dyn_peer[68] 	lookupTimeSig:mean 	1.9285714285714
scalar Network.dyn_peer[68] 	lookupStabilitySig:mean 	0.86576533690095
scalar Network.dyn_peer[68] 	lookupHopsSig:mean 	18.428571428571
scalar Network.dyn_peer[69] 	lookupTimeSig:mean 	1.4181818181818
scalar Network.dyn_peer[69] 	lookupStabilitySig:mean 	0.88863480235027
scalar Network.dyn_peer[69] 	lookupHopsSig:mean 	13.272727272727
scalar Network.dyn_peer[70] 	lookupTimeSig:mean 	2.2111111111111
scalar Network.dyn_peer[70] 	lookupStabilitySig:mean 	0.885892168567
scalar Network.dyn_peer[70] 	lookupHopsSig:mean 	21.222222222222
scalar Network.dyn_peer[71] 	lookupTimeSig:mean 	1.7333333333333
scalar Network.dyn_peer[71] 	lookupStabilitySig:mean 	0.58956113799165
scalar Network.dyn_peer[71] 	lookupHopsSig:mean 	16.5
scalar Network.dyn_peer[72] 	lookupTimeSig:mean 	1.7
scalar Network.dyn_peer[72] 	lookupStabilitySig:mean 	0.62821798647443
scalar Network.dyn_peer[72] 	lookupHopsSig:mean 	16.166666666667
scalar Network.dyn_peer[73] 	lookupTimeSig:mean 	2.025
scalar Network.dyn_peer[73] 	lookupStabilitySig:mean 	0.71914205420762
scalar Network.dyn_peer[73] 	lookupHopsSig:mean 	19.5
scalar Network.dyn_peer[74] 	lookupTimeSig:mean 	2.25
scalar Network.dyn_peer[74] 	lookupStabilitySig:mean 	0.86235172177354
scalar Network.dyn_peer[74] 	lookupHopsSig:mean 	21.666666666667
scalar Network.dyn_peer[75] 	lookupTimeSig:mean 	1.7875
scalar Network.dyn_peer[75] 	lookupStabilitySig:mean 	0.7604581231717
scalar Network.dyn_peer[75] 	lookupHopsSig:mean 	17
scalar Network.dyn_peer[76] 	lookupTimeSig:mean 	1.6
scalar Network.dyn_peer[76] 	lookupStabilitySig:mean 	0.17812499403954
scalar Network.dyn_peer[76] 	lookupHopsSig:mean 	15.5
scalar Network.dyn_peer[77] 	lookupTimeSig:mean 	0.96666666666667
scalar Network.dyn_peer[77] 	lookupStabilitySig:mean 	0.56731170415878
scalar Network.dyn_peer[77] 	lookupHopsSig:mean 	8.8333333333333
scalar Network.dyn_peer[78] 	lookupTimeSig:mean 	1.7
scalar Network.dyn_peer[78] 	lookupStabilitySig:mean 	0.89306286796927
scalar Network.dyn_peer[78] 	lookupHopsSig:mean 	16.1
scalar Network.dyn_peer[79] 	lookupTimeSig:mean 	2.0166666666667
scalar Network.dyn_peer[79] 	lookupStabilitySig:mean 	0.54709415572385
scalar Network.dyn_peer[79] 	lookupHopsSig:mean 	19.333333333333
scalar Network.dyn_peer[80] 	lookupTimeSig:mean 	1.84
scalar Network.dyn_peer[80] 	lookupStabilitySig:mean 	0.52036420963705
scalar Network.dyn_peer[80] 	lookupHopsSig:mean 	17.6
scalar Network.dyn_peer[81] 	lookupTimeSig:mean 	1.7875
scalar Network.dyn_peer[81] 	lookupStabilitySig:mean 	0.71751680714078
scalar Network.dyn_peer[81] 	lookupHopsSig:mean 	17
scalar Network.dyn_peer[82] 	lookupTimeSig:mean 	1.525
scalar Network.dyn_peer[82] 	lookupStabilitySig:mean 	0.51496451348066
scalar Network.dyn_peer[82] 	lookupHopsSig:mean 	14.5
scalar Network.dyn_peer[83] 	lookupTimeSig:mean 	1.2833333333333
scalar Network.dyn_peer[83] 	lookupStabilitySig:mean 	0.66689780013015
scalar Network.dyn_peer[83] 	lookupHopsSig:mean 	12
scalar Network.dyn_peer[84] 	lookupTimeSig:mean 	6.6
scalar Network.dyn_peer[84] 	lookupStabilitySig:mean 	0.59508195519447
scalar Network.dyn_peer[84] 	lookupHopsSig:mean 	65.5
scalar Network.dyn_peer[85] 	lookupTimeSig:mean 	2.6833333333333
scalar Network.dyn_peer[85] 	lookupStabilitySig:mean 	0.70416653777162
scalar Network.dyn_peer[85] 	lookupHopsSig:mean 	26
scalar Network.dyn_peer[86] 	lookupTimeSig:mean 	1.4714285714286
scalar Network.dyn_peer[86] 	lookupStabilitySig:mean 	0.53272209689021
scalar Network.dyn_peer[86] 	lookupHopsSig:mean 	13.857142857143
scalar Network.dyn_peer[87] 	lookupTimeSig:mean 	2.12
scalar Network.dyn_peer[87] 	lookupStabilitySig:mean 	0.56356067545712
scalar Network.dyn_peer[87] 	lookupHopsSig:mean 	20.4
scalar Network.dyn_peer[88] 	lookupTimeSig:mean 	3.9333333333333
scalar Network.dyn_peer[88] 	lookupStabilitySig:mean 	0.431410258015
scalar Network.dyn_peer[88] 	lookupHopsSig:mean 	38.666666666667
scalar Network.dyn_peer[89] 	lookupTimeSig:mean 	2.3333333333333
scalar Network.dyn_peer[89] 	lookupStabilitySig:mean 	0.79295212713381
scalar Network.dyn_peer[89] 	lookupHopsSig:mean 	22.5
scalar Network.dyn_peer[90] 	lookupTimeSig:mean 	2.1428571428571
scalar Network.dyn_peer[90] 	lookupStabilitySig:mean 	0.82121136784554
scalar Network.dyn_peer[90] 	lookupHopsSig:mean 	20.571428571429
scalar Network.dyn_peer[91] 	lookupTimeSig:mean 	2.2555555555556
scalar Network.dyn_peer[91] 	lookupStabilitySig:mean 	0.91211215820577
scalar Network.dyn_peer[91] 	lookupHopsSig:mean 	21.666666666667
scalar Network.dyn_peer[92] 	lookupTimeSig:mean 	2.18
scalar Network.dyn_peer[92] 	lookupStabilitySig:mean 	0.64088062159717
scalar Network.dyn_peer[92] 	lookupHopsSig:mean 	21
scalar Network.dyn_peer[93] 	lookupTimeSig:mean 	1.98
scalar Network.dyn_peer[93] 	lookupStabilitySig:mean 	0.72232268229127
scalar Network.dyn_peer[93] 	lookupHopsSig:mean 	19
scalar Network.dyn_peer[94] 	lookupTimeSig:mean 	1.8142857142857
scalar Network.dyn_peer[94] 	lookupStabilitySig:mean 	0.58734312626932
scalar Network.dyn_peer[94] 	lookupHopsSig:mean 	17.285714285714
scalar Network.dyn_peer[95] 	lookupTimeSig:mean 	1.8
scalar Network.dyn_peer[95] 	lookupStabilitySig:mean 	0.9082274996779
scalar Network.dyn_peer[95] 	lookupHopsSig:mean 	17.111111111111
scalar Network.dyn_peer[96] 	lookupTimeSig:mean 	1.9
scalar Network.dyn_peer[96] 	lookupStabilitySig:mean 	0.60357968509197
scalar Network.dyn_peer[96] 	lookupHopsSig:mean 	18.2
scalar Network.dyn_peer[97] 	lookupTimeSig:mean 	1.4
scalar Network.dyn_peer[97] 	lookupStabilitySig:mean 	0.52637307532132
scalar Network.dyn_peer[97] 	lookupHopsSig:mean 	13.25
scalar Network.dyn_peer[98] 	lookupTimeSig:mean 	2.0928571428571
scalar Network.dyn_peer[98] 	lookupStabilitySig:mean 	0.96195609235604
scalar Network.dyn_peer[98] 	lookupHopsSig:mean 	20
scalar Network.dyn_peer[99] 	lookupTimeSig:mean 	1.7166666666667
scalar Network.dyn_peer[99] 	lookupStabilitySig:mean 	0.62478252934913
scalar Network.dyn_peer[99] 	lookupHopsSig:mean 	16.333333333333
scalar Network.dyn_peer[100] 	lookupTimeSig:mean 	2.0666666666667
scalar Network.dyn_peer[100] 	lookupStabilitySig:mean 	0.15695212284724
scalar Network.dyn_peer[100] 	lookupHopsSig:mean 	20
scalar Network.dyn_peer[101] 	lookupTimeSig:mean 	1.35
scalar Network.dyn_peer[101] 	lookupStabilitySig:mean 	0.8164397034395
scalar Network.dyn_peer[101] 	lookupHopsSig:mean 	12.571428571429
scalar Network.dyn_peer[102] 	lookupTimeSig:mean 	1.3777777777778
scalar Network.dyn_peer[102] 	lookupStabilitySig:mean 	0.75331970914784
scalar Network.dyn_peer[102] 	lookupHopsSig:mean 	12.888888888889
scalar Network.dyn_peer[103] 	lookupTimeSig:mean 	2.0375
scalar Network.dyn_peer[103] 	lookupStabilitySig:mean 	0.71025267371442
scalar Network.dyn_peer[103] 	lookupHopsSig:mean 	19.5
scalar Network.dyn_peer[104] 	lookupTimeSig:mean 	1.625
scalar Network.dyn_peer[104] 	lookupStabilitySig:mean 	0.40524156391621
scalar Network.dyn_peer[104] 	lookupHopsSig:mean 	15.5
scalar Network.dyn_peer[105] 	lookupTimeSig:mean 	1.4
scalar Network.dyn_peer[105] 	lookupStabilitySig:mean 	0.74394537487792
scalar Network.dyn_peer[105] 	lookupHopsSig:mean 	13.111111111111
scalar Network.dyn_peer[106] 	lookupTimeSig:mean 	2.05
scalar Network.dyn_peer[106] 	lookupStabilitySig:mean 	0.91071141479188
scalar Network.dyn_peer[106] 	lookupHopsSig:mean 	19.625
scalar Network.dyn_peer[107] 	lookupTimeSig:mean 	0.98571428571429
scalar Network.dyn_peer[107] 	lookupStabilitySig:mean 	0.58112892135978
scalar Network.dyn_peer[107] 	lookupHopsSig:mean 	9
scalar Network.dyn_peer[108] 	lookupTimeSig:mean 	1.5333333333333
scalar Network.dyn_peer[108] 	lookupStabilitySig:mean 	0.20871079961459
scalar Network.dyn_peer[108] 	lookupHopsSig:mean 	14.666666666667
scalar Network.dyn_peer[109] 	lookupTimeSig:mean 	6.1
scalar Network.dyn_peer[109] 	lookupStabilitySig:mean 	0.54608534276485
scalar Network.dyn_peer[109] 	lookupHopsSig:mean 	60.5
scalar Network.dyn_peer[110] 	lookupTimeSig:mean 	3.075
scalar Network.dyn_peer[110] 	lookupStabilitySig:mean 	0.60144061874598
scalar Network.dyn_peer[110] 	lookupHopsSig:mean 	30
scalar Network.dyn_peer[111] 	lookupTimeSig:mean 	1.8
scalar Network.dyn_peer[111] 	lookupStabilitySig:mean 	0.27122960984707
scalar Network.dyn_peer[111] 	lookupHopsSig:mean 	17.25
scalar Network.dyn_peer[112] 	lookupTimeSig:mean 	1.5
scalar Network.dyn_peer[112] 	lookupStabilitySig:mean 	0.70827387180179
scalar Network.dyn_peer[112] 	lookupHopsSig:mean 	14.166666666667
scalar Network.dyn_peer[113] 	lookupTimeSig:mean 	0.71666666666667
scalar Network.dyn_peer[113] 	lookupStabilitySig:mean 	0.52431893100341
scalar Network.dyn_peer[113] 	lookupHopsSig:mean 	6.3333333333333
scalar Network.dyn_peer[114] 	lookupTimeSig:mean 	2.775
scalar Network.dyn_peer[114] 	lookupStabilitySig:mean 	0.50074179843068
scalar Network.dyn_peer[114] 	lookupHopsSig:mean 	27
scalar Network.dyn_peer[115] 	lookupTimeSig:mean 	1.95
scalar Network.dyn_peer[115] 	lookupStabilitySig:mean 	0.67686550753812
scalar Network.dyn_peer[115] 	lookupHopsSig:mean 	18.666666666667
scalar Network.dyn_peer[116] 	lookupTimeSig:mean 	3
scalar Network.dyn_peer[116] 	lookupStabilitySig:mean 	0.36896549910307
scalar Network.dyn_peer[116] 	lookupHopsSig:mean 	29.5
scalar Network.dyn_peer[117] 	lookupTimeSig:mean 	1.3714285714286
scalar Network.dyn_peer[117] 	lookupStabilitySig:mean 	0.69587754764195
scalar Network.dyn_peer[117] 	lookupHopsSig:mean 	12.857142857143
scalar Network.dyn_peer[118] 	lookupTimeSig:mean 	1.6666666666667
scalar Network.dyn_peer[118] 	lookupStabilitySig:mean 	0.71428986017903
scalar Network.dyn_peer[118] 	lookupHopsSig:mean 	15.777777777778
scalar Network.dyn_peer[119] 	lookupTimeSig:mean 	1.6285714285714
scalar Network.dyn_peer[119] 	lookupStabilitySig:mean 	0.6232459953587
scalar Network.dyn_peer[119] 	lookupHopsSig:mean 	15.428571428571
scalar Network.dyn_peer[120] 	lookupTimeSig:mean 	2.1
scalar Network.dyn_peer[120] 	lookupStabilitySig:mean 	0.66393849141896
scalar Network.dyn_peer[120] 	lookupHopsSig:mean 	20.2
scalar Network.dyn_peer[121] 	lookupTimeSig:mean 	1.5
scalar Network.dyn_peer[121] 	lookupStabilitySig:mean 	0.71328704804182
scalar Network.dyn_peer[121] 	lookupHopsSig:mean 	14.25
scalar Network.dyn_peer[122] 	lookupTimeSig:mean 	1.6857142857143
scalar Network.dyn_peer[122] 	lookupStabilitySig:mean 	0.89263029835586
scalar Network.dyn_peer[122] 	lookupHopsSig:mean 	16
scalar Network.dyn_peer[123] 	lookupTimeSig:mean 	2.7
scalar Network.dyn_peer[123] 	lookupStabilitySig:mean 	0.46102149784565
scalar Network.dyn_peer[123] 	lookupHopsSig:mean 	26.5
scalar Network.dyn_peer[124] 	lookupTimeSig:mean 	4.5
scalar Network.dyn_peer[124] 	lookupStabilitySig:mean 	0.87212643027306
scalar Network.dyn_peer[124] 	lookupHopsSig:mean 	44.5
scalar Network.dyn_peer[125] 	lookupTimeSig:mean 	3.4333333333333
scalar Network.dyn_peer[125] 	lookupStabilitySig:mean 	0.38909313951929
scalar Network.dyn_peer[125] 	lookupHopsSig:mean 	33.666666666667
scalar Network.dyn_peer[126] 	lookupTimeSig:mean 	2.08
scalar Network.dyn_peer[126] 	lookupStabilitySig:mean 	0.60135724544525
scalar Network.dyn_peer[126] 	lookupHopsSig:mean 	20
scalar Network.dyn_peer[127] 	lookupTimeSig:mean 	2.4666666666667
scalar Network.dyn_peer[127] 	lookupStabilitySig:mean 	0.28238870203495
scalar Network.dyn_peer[127] 	lookupHopsSig:mean 	24
scalar Network.dyn_peer[128] 	lookupTimeSig:mean 	1.0666666666667
scalar Network.dyn_peer[128] 	lookupStabilitySig:mean 	0.16106441368659
scalar Network.dyn_peer[128] 	lookupHopsSig:mean 	10
scalar Network.dyn_peer[129] 	lookupTimeSig:mean 	1.02
scalar Network.dyn_peer[129] 	lookupStabilitySig:mean 	0.44876605421305
scalar Network.dyn_peer[129] 	lookupHopsSig:mean 	9.4
scalar Network.dyn_peer[130] 	lookupTimeSig:mean 	1.6214285714286
scalar Network.dyn_peer[130] 	lookupStabilitySig:mean 	0.85186729003908
scalar Network.dyn_peer[130] 	lookupHopsSig:mean 	15.285714285714
scalar Network.dyn_peer[131] 	lookupTimeSig:mean 	2.2142857142857
scalar Network.dyn_peer[131] 	lookupStabilitySig:mean 	0.87581519463233
scalar Network.dyn_peer[131] 	lookupHopsSig:mean 	21.285714285714
scalar Network.dyn_peer[132] 	lookupTimeSig:mean 	1.3888888888889
scalar Network.dyn_peer[132] 	lookupStabilitySig:mean 	0.92514614905748
scalar Network.dyn_peer[132] 	lookupHopsSig:mean 	13
scalar Network.dyn_peer[133] 	lookupTimeSig:mean 	1.1666666666667
scalar Network.dyn_peer[133] 	lookupStabilitySig:mean 	0.12222222983837
scalar Network.dyn_peer[133] 	lookupHopsSig:mean 	11
scalar Network.dyn_peer[134] 	lookupTimeSig:mean 	1.08
scalar Network.dyn_peer[134] 	lookupStabilitySig:mean 	0.65700237005949
scalar Network.dyn_peer[134] 	lookupHopsSig:mean 	10
scalar Network.dyn_peer[135] 	lookupTimeSig:mean 	2.4285714285714
scalar Network.dyn_peer[135] 	lookupStabilitySig:mean 	0.67245979500668
scalar Network.dyn_peer[135] 	lookupHopsSig:mean 	23.428571428571
scalar Network.dyn_peer[136] 	lookupTimeSig:mean 	1.4444444444444
scalar Network.dyn_peer[136] 	lookupStabilitySig:mean 	0.80231034716902
scalar Network.dyn_peer[136] 	lookupHopsSig:mean 	13.555555555556
scalar Network.dyn_peer[137] 	lookupTimeSig:mean 	2.775
scalar Network.dyn_peer[137] 	lookupStabilitySig:mean 	0.5600927695632
scalar Network.dyn_peer[137] 	lookupHopsSig:mean 	27
scalar Network.dyn_peer[138] 	lookupTimeSig:mean 	1.4428571428571
scalar Network.dyn_peer[138] 	lookupStabilitySig:mean 	0.69131327500301
scalar Network.dyn_peer[138] 	lookupHopsSig:mean 	13.571428571429
scalar Network.dyn_peer[139] 	lookupTimeSig:mean 	1.6777777777778
scalar Network.dyn_peer[139] 	lookupStabilitySig:mean 	0.7166277849012
scalar Network.dyn_peer[139] 	lookupHopsSig:mean 	15.888888888889
scalar Network.dyn_peer[140] 	lookupTimeSig:mean 	2.92
scalar Network.dyn_peer[140] 	lookupStabilitySig:mean 	0.74175104238093
scalar Network.dyn_peer[140] 	lookupHopsSig:mean 	28.4
scalar Network.dyn_peer[141] 	lookupTimeSig:mean 	1.875
scalar Network.dyn_peer[141] 	lookupStabilitySig:mean 	0.42801852151752
scalar Network.dyn_peer[141] 	lookupHopsSig:mean 	18
scalar Network.dyn_peer[142] 	lookupTimeSig:mean 	2.3
scalar Network.dyn_peer[142] 	lookupStabilitySig:mean 	0.63607621146366
scalar Network.dyn_peer[142] 	lookupHopsSig:mean 	22.166666666667
scalar Network.dyn_peer[143] 	lookupTimeSig:mean 	2.725
scalar Network.dyn_peer[143] 	lookupStabilitySig:mean 	0.50622751936316
scalar Network.dyn_peer[143] 	lookupHopsSig:mean 	26.5
scalar Network.dyn_peer[144] 	lookupTimeSig:mean 	1.5
scalar Network.dyn_peer[144] 	lookupStabilitySig:mean 	0.62917355820537
scalar Network.dyn_peer[144] 	lookupHopsSig:mean 	14.2
scalar Network.dyn_peer[145] 	lookupTimeSig:mean 	2.72
scalar Network.dyn_peer[145] 	lookupStabilitySig:mean 	0.87164512947202
scalar Network.dyn_peer[145] 	lookupHopsSig:mean 	26.4
scalar Network.dyn_peer[146] 	lookupTimeSig:mean 	1.8
scalar Network.dyn_peer[146] 	lookupStabilitySig:mean 	0.3039388731122
scalar Network.dyn_peer[146] 	lookupHopsSig:mean 	17.333333333333
scalar Network.dyn_peer[147] 	lookupTimeSig:mean 	2.3615384615385
scalar Network.dyn_peer[147] 	lookupStabilitySig:mean 	0.95515103523548
scalar Network.dyn_peer[147] 	lookupHopsSig:mean 	22.692307692308
scalar Network.dyn_peer[148] 	lookupTimeSig:mean 	2.7375
scalar Network.dyn_peer[148] 	lookupStabilitySig:mean 	0.95925679826178
scalar Network.dyn_peer[148] 	lookupHopsSig:mean 	26.5
scalar Network.dyn_peer[149] 	lookupTimeSig:mean 	1.9111111111111
scalar Network.dyn_peer[149] 	lookupStabilitySig:mean 	0.93390891535415
scalar Network.dyn_peer[149] 	lookupHopsSig:mean 	18.222222222222
scalar Network.dyn_peer[150] 	lookupTimeSig:mean 	1.96
scalar Network.dyn_peer[150] 	lookupStabilitySig:mean 	0.94816907187924
scalar Network.dyn_peer[150] 	lookupHopsSig:mean 	18.7
scalar Network.dyn_peer[151] 	lookupTimeSig:mean 	1.75
scalar Network.dyn_peer[151] 	lookupStabilitySig:mean 	0.70482414565049
scalar Network.dyn_peer[151] 	lookupHopsSig:mean 	16.625
scalar Network.dyn_peer[152] 	lookupTimeSig:mean 	2.3333333333333
scalar Network.dyn_peer[152] 	lookupStabilitySig:mean 	0.32551494489113
scalar Network.dyn_peer[152] 	lookupHopsSig:mean 	22.666666666667
scalar Network.dyn_peer[153] 	lookupTimeSig:mean 	2.0142857142857
scalar Network.dyn_peer[153] 	lookupStabilitySig:mean 	0.93565919436514
scalar Network.dyn_peer[153] 	lookupHopsSig:mean 	19.285714285714
scalar Network.dyn_peer[154] 	lookupTimeSig:mean 	1.525
scalar Network.dyn_peer[154] 	lookupStabilitySig:mean 	0.34534669853747
scalar Network.dyn_peer[154] 	lookupHopsSig:mean 	14.5
scalar Network.dyn_peer[155] 	lookupTimeSig:mean 	2.78
scalar Network.dyn_peer[155] 	lookupStabilitySig:mean 	0.90774493291974
scalar Network.dyn_peer[155] 	lookupHopsSig:mean 	27
scalar Network.dyn_peer[156] 	lookupTimeSig:mean 	3.1
scalar Network.dyn_peer[156] 	lookupStabilitySig:mean 	0.024691373109818
scalar Network.dyn_peer[156] 	lookupHopsSig:mean 	30.5
scalar Network.dyn_peer[157] 	lookupTimeSig:mean 	1.7
scalar Network.dyn_peer[157] 	lookupStabilitySig:mean 	0.49113010428846
scalar Network.dyn_peer[157] 	lookupHopsSig:mean 	16.2
scalar Network.dyn_peer[158] 	lookupTimeSig:mean 	1.77
scalar Network.dyn_peer[158] 	lookupStabilitySig:mean 	0.74683068832383
scalar Network.dyn_peer[158] 	lookupHopsSig:mean 	16.8
scalar Network.dyn_peer[159] 	lookupTimeSig:mean 	1.7583333333333
scalar Network.dyn_peer[159] 	lookupStabilitySig:mean 	0.78995156955595
scalar Network.dyn_peer[159] 	lookupHopsSig:mean 	16.666666666667
scalar Network.dyn_peer[160] 	lookupTimeSig:mean 	0.73333333333333
scalar Network.dyn_peer[160] 	lookupStabilitySig:mean 	0.23650791247686
scalar Network.dyn_peer[160] 	lookupHopsSig:mean 	6.6666666666667
scalar Network.dyn_peer[161] 	lookupTimeSig:mean 	2.1625
scalar Network.dyn_peer[161] 	lookupStabilitySig:mean 	0.92615707882214
scalar Network.dyn_peer[161] 	lookupHopsSig:mean 	20.75
scalar Network.dyn_peer[162] 	lookupTimeSig:mean 	1.2
scalar Network.dyn_peer[162] 	lookupStabilitySig:mean 	0.70124599856458
scalar Network.dyn_peer[162] 	lookupHopsSig:mean 	11.142857142857
scalar Network.dyn_peer[163] 	lookupTimeSig:mean 	1.1444444444444
scalar Network.dyn_peer[163] 	lookupStabilitySig:mean 	0.69012764634358
scalar Network.dyn_peer[163] 	lookupHopsSig:mean 	10.555555555556
scalar Network.dyn_peer[164] 	lookupTimeSig:mean 	5.75
scalar Network.dyn_peer[164] 	lookupStabilitySig:mean 	0.70323877036572
scalar Network.dyn_peer[164] 	lookupHopsSig:mean 	57
scalar Network.dyn_peer[165] 	lookupTimeSig:mean 	0.9
scalar Network.dyn_peer[165] 	lookupStabilitySig:mean 	0.68113815225661
scalar Network.dyn_peer[165] 	lookupHopsSig:mean 	8.1111111111111
scalar Network.dyn_peer[166] 	lookupTimeSig:mean 	1.225
scalar Network.dyn_peer[166] 	lookupStabilitySig:mean 	0.67882276838645
scalar Network.dyn_peer[166] 	lookupHopsSig:mean 	11.5
scalar Network.dyn_peer[167] 	lookupTimeSig:mean 	1.22
scalar Network.dyn_peer[167] 	lookupStabilitySig:mean 	0.66352792233229
scalar Network.dyn_peer[167] 	lookupHopsSig:mean 	11.4
scalar Network.dyn_peer[168] 	lookupTimeSig:mean 	1.2333333333333
scalar Network.dyn_peer[168] 	lookupStabilitySig:mean 	0.19988662997882
scalar Network.dyn_peer[168] 	lookupHopsSig:mean 	11.666666666667
scalar Network.dyn_peer[169] 	lookupTimeSig:mean 	3.1428571428571
scalar Network.dyn_peer[169] 	lookupStabilitySig:mean 	0.93965319756951
scalar Network.dyn_peer[169] 	lookupHopsSig:mean 	30.571428571429
scalar Network.dyn_peer[170] 	lookupTimeSig:mean 	1.9454545454545
scalar Network.dyn_peer[170] 	lookupStabilitySig:mean 	0.95592000462453
scalar Network.dyn_peer[170] 	lookupHopsSig:mean 	18.545454545455
scalar Network.dyn_peer[171] 	lookupTimeSig:mean 	2.11875
scalar Network.dyn_peer[171] 	lookupStabilitySig:mean 	0.9725865497021
scalar Network.dyn_peer[171] 	lookupHopsSig:mean 	20.25
scalar Network.dyn_peer[172] 	lookupTimeSig:mean 	2.1857142857143
scalar Network.dyn_peer[172] 	lookupStabilitySig:mean 	0.6120842463736
scalar Network.dyn_peer[172] 	lookupHopsSig:mean 	21
scalar Network.dyn_peer[173] 	lookupTimeSig:mean 	2.24
scalar Network.dyn_peer[173] 	lookupStabilitySig:mean 	0.42438844442368
scalar Network.dyn_peer[173] 	lookupHopsSig:mean 	21.6
scalar Network.dyn_peer[174] 	lookupTimeSig:mean 	1.0666666666667
scalar Network.dyn_peer[174] 	lookupStabilitySig:mean 	0.39814813186725
scalar Network.dyn_peer[174] 	lookupHopsSig:mean 	10
scalar Network.dyn_peer[175] 	lookupTimeSig:mean 	1.5625
scalar Network.dyn_peer[175] 	lookupStabilitySig:mean 	0.70502454217058
scalar Network.dyn_peer[175] 	lookupHopsSig:mean 	14.75
scalar Network.dyn_peer[176] 	lookupTimeSig:mean 	1.2
scalar Network.dyn_peer[176] 	lookupStabilitySig:mean 	0.71683068280773
scalar Network.dyn_peer[176] 	lookupHopsSig:mean 	11.142857142857
scalar Network.dyn_peer[177] 	lookupTimeSig:mean 	4.075
scalar Network.dyn_peer[177] 	lookupStabilitySig:mean 	0.86506277881563
scalar Network.dyn_peer[177] 	lookupHopsSig:mean 	40
scalar Network.dyn_peer[178] 	lookupTimeSig:mean 	1.5285714285714
scalar Network.dyn_peer[178] 	lookupStabilitySig:mean 	0.84034234152309
scalar Network.dyn_peer[178] 	lookupHopsSig:mean 	14.428571428571
scalar Network.dyn_peer[179] 	lookupTimeSig:mean 	1.58125
scalar Network.dyn_peer[179] 	lookupStabilitySig:mean 	0.9139431448566
scalar Network.dyn_peer[179] 	lookupHopsSig:mean 	14.875
scalar Network.dyn_peer[180] 	lookupTimeSig:mean 	2.0857142857143
scalar Network.dyn_peer[180] 	lookupStabilitySig:mean 	0.60216176882386
scalar Network.dyn_peer[180] 	lookupHopsSig:mean 	20
scalar Network.dyn_peer[181] 	lookupTimeSig:mean 	1.46
scalar Network.dyn_peer[181] 	lookupStabilitySig:mean 	0.54706333056092
scalar Network.dyn_peer[181] 	lookupHopsSig:mean 	13.8
scalar Network.dyn_peer[182] 	lookupTimeSig:mean 	2.02
scalar Network.dyn_peer[182] 	lookupStabilitySig:mean 	0.94253786560148
scalar Network.dyn_peer[182] 	lookupHopsSig:mean 	19.266666666667
scalar Network.dyn_peer[183] 	lookupTimeSig:mean 	1.65
scalar Network.dyn_peer[183] 	lookupStabilitySig:mean 	0.75990000390448
scalar Network.dyn_peer[183] 	lookupHopsSig:mean 	15.625
scalar Network.dyn_peer[184] 	lookupTimeSig:mean 	2.3333333333333
scalar Network.dyn_peer[184] 	lookupStabilitySig:mean 	0.59933046003183
scalar Network.dyn_peer[184] 	lookupHopsSig:mean 	22.666666666667
scalar Network.dyn_peer[185] 	lookupTimeSig:mean 	1.9222222222222
scalar Network.dyn_peer[185] 	lookupStabilitySig:mean 	0.76742144787891
scalar Network.dyn_peer[185] 	lookupHopsSig:mean 	18.333333333333
scalar Network.dyn_peer[186] 	lookupTimeSig:mean 	1
scalar Network.dyn_peer[186] 	lookupStabilitySig:mean 	0.30633445829153
scalar Network.dyn_peer[186] 	lookupHopsSig:mean 	9.25
scalar Network.dyn_peer[187] 	lookupTimeSig:mean 	2.075
scalar Network.dyn_peer[187] 	lookupStabilitySig:mean 	0.54051036015153
scalar Network.dyn_peer[187] 	lookupHopsSig:mean 	20
scalar Network.dyn_peer[188] 	lookupTimeSig:mean 	1.28
scalar Network.dyn_peer[188] 	lookupStabilitySig:mean 	0.74453730806708
scalar Network.dyn_peer[188] 	lookupHopsSig:mean 	11.9
scalar Network.dyn_peer[189] 	lookupTimeSig:mean 	4.9666666666667
scalar Network.dyn_peer[189] 	lookupStabilitySig:mean 	0.84115350743135
scalar Network.dyn_peer[189] 	lookupHopsSig:mean 	49
scalar Network.dyn_peer[190] 	lookupTimeSig:mean 	1.8571428571429
scalar Network.dyn_peer[190] 	lookupStabilitySig:mean 	0.64490469571735
scalar Network.dyn_peer[190] 	lookupHopsSig:mean 	17.714285714286
scalar Network.dyn_peer[191] 	lookupTimeSig:mean 	3.28
scalar Network.dyn_peer[191] 	lookupStabilitySig:mean 	0.90121966283768
scalar Network.dyn_peer[191] 	lookupHopsSig:mean 	32
scalar Network.dyn_peer[192] 	lookupTimeSig:mean 	2.0875
scalar Network.dyn_peer[192] 	lookupStabilitySig:mean 	0.89861554600066
scalar Network.dyn_peer[192] 	lookupHopsSig:mean 	20
scalar Network.dyn_peer[193] 	lookupTimeSig:mean 	1.88
scalar Network.dyn_peer[193] 	lookupStabilitySig:mean 	0.96691758657495
scalar Network.dyn_peer[193] 	lookupHopsSig:mean 	17.866666666667
scalar Network.dyn_peer[194] 	lookupTimeSig:mean 	1.28
scalar Network.dyn_peer[194] 	lookupStabilitySig:mean 	0.75071832556278
scalar Network.dyn_peer[194] 	lookupHopsSig:mean 	11.9
scalar Network.dyn_peer[195] 	lookupTimeSig:mean 	1.88
scalar Network.dyn_peer[195] 	lookupStabilitySig:mean 	0.53703976273537
scalar Network.dyn_peer[195] 	lookupHopsSig:mean 	18
scalar Network.dyn_peer[196] 	lookupTimeSig:mean 	1.275
scalar Network.dyn_peer[196] 	lookupStabilitySig:mean 	0.71376242314
scalar Network.dyn_peer[196] 	lookupHopsSig:mean 	11.875
scalar Network.dyn_peer[197] 	lookupTimeSig:mean 	2.05
scalar Network.dyn_peer[197] 	lookupStabilitySig:mean 	0.95146741176723
scalar Network.dyn_peer[197] 	lookupHopsSig:mean 	19.625
scalar Network.dyn_peer[198] 	lookupTimeSig:mean 	2.4571428571429
scalar Network.dyn_peer[198] 	lookupStabilitySig:mean 	0.88299414302622
scalar Network.dyn_peer[198] 	lookupHopsSig:mean 	23.714285714286
scalar Network.dyn_peer[199] 	lookupTimeSig:mean 	3.4
scalar Network.dyn_peer[199] 	lookupStabilitySig:mean 	0.6374805547297
scalar Network.dyn_peer[199] 	lookupHopsSig:mean 	33.2
scalar Network.dyn_peer[200] 	lookupTimeSig:mean 	1.98
scalar Network.dyn_peer[200] 	lookupStabilitySig:mean 	0.78260780461133
scalar Network.dyn_peer[200] 	lookupHopsSig:mean 	19
scalar Network.dyn_peer[201] 	lookupTimeSig:mean 	1.25
scalar Network.dyn_peer[201] 	lookupStabilitySig:mean 	0.41941589396447
scalar Network.dyn_peer[201] 	lookupHopsSig:mean 	11.75
scalar Network.dyn_peer[202] 	lookupTimeSig:mean 	1.7090909090909
scalar Network.dyn_peer[202] 	lookupStabilitySig:mean 	0.95406042913568
scalar Network.dyn_peer[202] 	lookupHopsSig:mean 	16.181818181818
scalar Network.dyn_peer[203] 	lookupTimeSig:mean 	1.68
scalar Network.dyn_peer[203] 	lookupStabilitySig:mean 	0.45440041832626
scalar Network.dyn_peer[203] 	lookupHopsSig:mean 	16
scalar Network.dyn_peer[204] 	lookupTimeSig:mean 	2.2
scalar Network.dyn_peer[204] 	lookupStabilitySig:mean 	0.44429996795952
scalar Network.dyn_peer[204] 	lookupHopsSig:mean 	21.25
scalar Network.dyn_peer[205] 	lookupTimeSig:mean 	1.25
scalar Network.dyn_peer[205] 	lookupStabilitySig:mean 	0.4805555511266
scalar Network.dyn_peer[205] 	lookupHopsSig:mean 	11.75
scalar Network.dyn_peer[206] 	lookupTimeSig:mean 	2.52
scalar Network.dyn_peer[206] 	lookupStabilitySig:mean 	0.78018902540207
scalar Network.dyn_peer[206] 	lookupHopsSig:mean 	24.4
scalar Network.dyn_peer[207] 	lookupTimeSig:mean 	2.3
scalar Network.dyn_peer[207] 	lookupStabilitySig:mean 	0.756561903283
scalar Network.dyn_peer[207] 	lookupHopsSig:mean 	22.25
scalar Network.dyn_peer[208] 	lookupTimeSig:mean 	1.825
scalar Network.dyn_peer[208] 	lookupStabilitySig:mean 	0.6901281879982
scalar Network.dyn_peer[208] 	lookupHopsSig:mean 	17.375
scalar Network.dyn_peer[209] 	lookupTimeSig:mean 	1.8454545454545
scalar Network.dyn_peer[209] 	lookupStabilitySig:mean 	0.90749279951507
scalar Network.dyn_peer[209] 	lookupHopsSig:mean 	17.545454545455
scalar Network.dyn_peer[210] 	lookupTimeSig:mean 	1.6714285714286
scalar Network.dyn_peer[210] 	lookupStabilitySig:mean 	0.90519330584045
scalar Network.dyn_peer[210] 	lookupHopsSig:mean 	15.857142857143
scalar Network.dyn_peer[211] 	lookupTimeSig:mean 	2.6666666666667
scalar Network.dyn_peer[211] 	lookupStabilitySig:mean 	0.86827834074696
scalar Network.dyn_peer[211] 	lookupHopsSig:mean 	25.833333333333
scalar Network.dyn_peer[212] 	lookupTimeSig:mean 	1.4
scalar Network.dyn_peer[212] 	lookupStabilitySig:mean 	0.34411763896545
scalar Network.dyn_peer[212] 	lookupHopsSig:mean 	13.333333333333
scalar Network.dyn_peer[213] 	lookupTimeSig:mean 	1.5
scalar Network.dyn_peer[213] 	lookupStabilitySig:mean 	0.3687094161287
scalar Network.dyn_peer[213] 	lookupHopsSig:mean 	14.25
scalar Network.dyn_peer[214] 	lookupTimeSig:mean 	1.51
scalar Network.dyn_peer[214] 	lookupStabilitySig:mean 	0.78572859186679
scalar Network.dyn_peer[214] 	lookupHopsSig:mean 	14.2
scalar Network.dyn_peer[215] 	lookupTimeSig:mean 	1.9428571428571
scalar Network.dyn_peer[215] 	lookupStabilitySig:mean 	0.65010312186288
scalar Network.dyn_peer[215] 	lookupHopsSig:mean 	18.571428571429
scalar Network.dyn_peer[216] 	lookupTimeSig:mean 	2.2
scalar Network.dyn_peer[216] 	lookupStabilitySig:mean 	0.72982617095113
scalar Network.dyn_peer[216] 	lookupHopsSig:mean 	21.166666666667
scalar Network.dyn_peer[217] 	lookupTimeSig:mean 	1.8166666666667
scalar Network.dyn_peer[217] 	lookupStabilitySig:mean 	0.65317544154823
scalar Network.dyn_peer[217] 	lookupHopsSig:mean 	17.333333333333
scalar Network.dyn_peer[218] 	lookupTimeSig:mean 	1.6076923076923
scalar Network.dyn_peer[218] 	lookupStabilitySig:mean 	0.95730621091878
scalar Network.dyn_peer[218] 	lookupHopsSig:mean 	15.153846153846
scalar Network.dyn_peer[219] 	lookupTimeSig:mean 	1
scalar Network.dyn_peer[219] 	lookupStabilitySig:mean 	0.56268175393343
scalar Network.dyn_peer[219] 	lookupHopsSig:mean 	9.2
scalar Network.dyn_peer[220] 	lookupTimeSig:mean 	1.3888888888889
scalar Network.dyn_peer[220] 	lookupStabilitySig:mean 	0.8231508516603
scalar Network.dyn_peer[220] 	lookupHopsSig:mean 	13
scalar Network.dyn_peer[221] 	lookupTimeSig:mean 	2.7428571428571
scalar Network.dyn_peer[221] 	lookupStabilitySig:mean 	0.94539168490363
scalar Network.dyn_peer[221] 	lookupHopsSig:mean 	26.571428571429
scalar Network.dyn_peer[222] 	lookupTimeSig:mean 	1.3571428571429
scalar Network.dyn_peer[222] 	lookupStabilitySig:mean 	0.6463904120028
scalar Network.dyn_peer[222] 	lookupHopsSig:mean 	12.714285714286
scalar Network.dyn_peer[223] 	lookupTimeSig:mean 	1.8666666666667
scalar Network.dyn_peer[223] 	lookupStabilitySig:mean 	0.63510297207783
scalar Network.dyn_peer[223] 	lookupHopsSig:mean 	17.833333333333
scalar Network.dyn_peer[224] 	lookupTimeSig:mean 	2.42
scalar Network.dyn_peer[224] 	lookupStabilitySig:mean 	0.7434017971158
scalar Network.dyn_peer[224] 	lookupHopsSig:mean 	23.4
scalar Network.dyn_peer[225] 	lookupTimeSig:mean 	2
scalar Network.dyn_peer[225] 	lookupStabilitySig:mean 	0.87502559507266
scalar Network.dyn_peer[225] 	lookupHopsSig:mean 	19.25
scalar Network.dyn_peer[226] 	lookupTimeSig:mean 	2.95
scalar Network.dyn_peer[226] 	lookupStabilitySig:mean 	0.90305993985385
scalar Network.dyn_peer[226] 	lookupHopsSig:mean 	28.75
scalar Network.dyn_peer[227] 	lookupTimeSig:mean 	2.72
scalar Network.dyn_peer[227] 	lookupStabilitySig:mean 	0.89552592057735
scalar Network.dyn_peer[227] 	lookupHopsSig:mean 	26.4
scalar Network.dyn_peer[228] 	lookupTimeSig:mean 	2.425
scalar Network.dyn_peer[228] 	lookupStabilitySig:mean 	0.4125839676708
scalar Network.dyn_peer[228] 	lookupHopsSig:mean 	23.5
scalar Network.dyn_peer[229] 	lookupTimeSig:mean 	2.55
scalar Network.dyn_peer[229] 	lookupStabilitySig:mean 	0.95667442725971
scalar Network.dyn_peer[229] 	lookupHopsSig:mean 	24.625
scalar Network.dyn_peer[230] 	lookupTimeSig:mean 	2.075
scalar Network.dyn_peer[230] 	lookupStabilitySig:mean 	0.43354303203523
scalar Network.dyn_peer[230] 	lookupHopsSig:mean 	20
scalar Network.dyn_peer[231] 	lookupTimeSig:mean 	3.775
scalar Network.dyn_peer[231] 	lookupStabilitySig:mean 	0.49393829144537
scalar Network.dyn_peer[231] 	lookupHopsSig:mean 	37
scalar Network.dyn_peer[232] 	lookupTimeSig:mean 	1.52
scalar Network.dyn_peer[232] 	lookupStabilitySig:mean 	0.72197288423777
scalar Network.dyn_peer[232] 	lookupHopsSig:mean 	14.3
scalar Network.dyn_peer[233] 	lookupTimeSig:mean 	2.3142857142857
scalar Network.dyn_peer[233] 	lookupStabilitySig:mean 	0.69640274971191
scalar Network.dyn_peer[233] 	lookupHopsSig:mean 	22.285714285714
scalar Network.dyn_peer[234] 	lookupTimeSig:mean 	1.2857142857143
scalar Network.dyn_peer[234] 	lookupStabilitySig:mean 	0.63881718580212
scalar Network.dyn_peer[234] 	lookupHopsSig:mean 	12
scalar Network.dyn_peer[235] 	lookupTimeSig:mean 	3.1
scalar Network.dyn_peer[235] 	lookupStabilitySig:mean 	0.26785714179277
scalar Network.dyn_peer[235] 	lookupHopsSig:mean 	30.5
scalar Network.dyn_peer[236] 	lookupTimeSig:mean 	1.8818181818182
scalar Network.dyn_peer[236] 	lookupStabilitySig:mean 	0.91055309814824
scalar Network.dyn_peer[236] 	lookupHopsSig:mean 	17.909090909091
scalar Network.dyn_peer[237] 	lookupTimeSig:mean 	2.83
scalar Network.dyn_peer[237] 	lookupStabilitySig:mean 	0.95224961536005
scalar Network.dyn_peer[237] 	lookupHopsSig:mean 	27.4
scalar Network.dyn_peer[238] 	lookupTimeSig:mean 	2.2666666666667
scalar Network.dyn_peer[238] 	lookupStabilitySig:mean 	0.90798710876455
scalar Network.dyn_peer[238] 	lookupHopsSig:mean 	21.833333333333
scalar Network.dyn_peer[239] 	lookupTimeSig:mean 	1.5285714285714
scalar Network.dyn_peer[239] 	lookupStabilitySig:mean 	0.70897848504995
scalar Network.dyn_peer[239] 	lookupHopsSig:mean 	14.428571428571
scalar Network.dyn_peer[240] 	lookupTimeSig:mean 	2.07
scalar Network.dyn_peer[240] 	lookupStabilitySig:mean 	0.79521515192464
scalar Network.dyn_peer[240] 	lookupHopsSig:mean 	19.8
scalar Network.dyn_peer[241] 	lookupTimeSig:mean 	0.83333333333333
scalar Network.dyn_peer[241] 	lookupStabilitySig:mean 	0.6010665120557
scalar Network.dyn_peer[241] 	lookupHopsSig:mean 	7.5
scalar Network.dyn_peer[242] 	lookupTimeSig:mean 	2.075
scalar Network.dyn_peer[242] 	lookupStabilitySig:mean 	0.5767630673945
scalar Network.dyn_peer[242] 	lookupHopsSig:mean 	20
scalar Network.dyn_peer[243] 	lookupTimeSig:mean 	2.375
scalar Network.dyn_peer[243] 	lookupStabilitySig:mean 	0.47102109529078
scalar Network.dyn_peer[243] 	lookupHopsSig:mean 	23
scalar Network.dyn_peer[244] 	lookupTimeSig:mean 	2.2
scalar Network.dyn_peer[244] 	lookupStabilitySig:mean 	0.83799205402223
scalar Network.dyn_peer[244] 	lookupHopsSig:mean 	21.166666666667
scalar Network.dyn_peer[245] 	lookupTimeSig:mean 	2.55
scalar Network.dyn_peer[245] 	lookupStabilitySig:mean 	0.93329320568591
scalar Network.dyn_peer[245] 	lookupHopsSig:mean 	24.625
scalar Network.dyn_peer[246] 	lookupTimeSig:mean 	1.5571428571429
scalar Network.dyn_peer[246] 	lookupStabilitySig:mean 	0.73693651439888
scalar Network.dyn_peer[246] 	lookupHopsSig:mean 	14.714285714286
scalar Network.dyn_peer[247] 	lookupTimeSig:mean 	3.3
scalar Network.dyn_peer[247] 	lookupStabilitySig:mean 	0.76939541660249
scalar Network.dyn_peer[247] 	lookupHopsSig:mean 	32.5
scalar Network.dyn_peer[248] 	lookupTimeSig:mean 	4.5
scalar Network.dyn_peer[248] 	lookupStabilitySig:mean 	0.70511366426945
scalar Network.dyn_peer[248] 	lookupHopsSig:mean 	44.5
scalar Network.dyn_peer[249] 	lookupTimeSig:mean 	1.6666666666667
scalar Network.dyn_peer[249] 	lookupStabilitySig:mean 	0.7360534965992
scalar Network.dyn_peer[249] 	lookupHopsSig:mean 	15.833333333333
scalar Network.dyn_peer[250] 	lookupTimeSig:mean 	2.125
scalar Network.dyn_peer[250] 	lookupStabilitySig:mean 	0.42036515474319
scalar Network.dyn_peer[250] 	lookupHopsSig:mean 	20.5
scalar Network.dyn_peer[251] 	lookupTimeSig:mean 	1.55
scalar Network.dyn_peer[251] 	lookupStabilitySig:mean 	0.73361570593746
scalar Network.dyn_peer[251] 	lookupHopsSig:mean 	14.666666666667
scalar Network.dyn_peer[252] 	lookupTimeSig:mean 	1.8333333333333
scalar Network.dyn_peer[252] 	lookupStabilitySig:mean 	0.68820978576938
scalar Network.dyn_peer[252] 	lookupHopsSig:mean 	17.5
scalar Network.dyn_peer[253] 	lookupTimeSig:mean 	1.7733333333333
scalar Network.dyn_peer[253] 	lookupStabilitySig:mean 	0.8912120586882
scalar Network.dyn_peer[253] 	lookupHopsSig:mean 	16.8
scalar Network.dyn_peer[254] 	lookupTimeSig:mean 	1.3833333333333
scalar Network.dyn_peer[254] 	lookupStabilitySig:mean 	0.63305686259021
scalar Network.dyn_peer[254] 	lookupHopsSig:mean 	13
scalar Network.dyn_peer[255] 	lookupTimeSig:mean 	2.94
scalar Network.dyn_peer[255] 	lookupStabilitySig:mean 	0.83732584156096
scalar Network.dyn_peer[255] 	lookupHopsSig:mean 	28.6
scalar Network.dyn_peer[256] 	lookupTimeSig:mean 	2.3714285714286
scalar Network.dyn_peer[256] 	lookupStabilitySig:mean 	0.94036437730704
scalar Network.dyn_peer[256] 	lookupHopsSig:mean 	22.857142857143
scalar Network.dyn_peer[257] 	lookupTimeSig:mean 	2.625
scalar Network.dyn_peer[257] 	lookupStabilitySig:mean 	0.51534934714437
scalar Network.dyn_peer[257] 	lookupHopsSig:mean 	25.5
scalar Network.dyn_peer[258] 	lookupTimeSig:mean 	1.3
scalar Network.dyn_peer[258] 	lookupStabilitySig:mean 	0.56484134942293
scalar Network.dyn_peer[258] 	lookupHopsSig:mean 	12.2
scalar Network.dyn_peer[259] 	lookupTimeSig:mean 	5.2333333333333
scalar Network.dyn_peer[259] 	lookupStabilitySig:mean 	0.9170462647453
scalar Network.dyn_peer[259] 	lookupHopsSig:mean 	51.666666666667
scalar Network.dyn_peer[260] 	lookupTimeSig:mean 	2.375
scalar Network.dyn_peer[260] 	lookupStabilitySig:mean 	0.84781626891345
scalar Network.dyn_peer[260] 	lookupHopsSig:mean 	23
scalar Network.dyn_peer[261] 	lookupTimeSig:mean 	2.6777777777778
scalar Network.dyn_peer[261] 	lookupStabilitySig:mean 	0.94997861971044
scalar Network.dyn_peer[261] 	lookupHopsSig:mean 	25.888888888889
scalar Network.dyn_peer[262] 	lookupTimeSig:mean 	3.76
scalar Network.dyn_peer[262] 	lookupStabilitySig:mean 	0.8894829813391
scalar Network.dyn_peer[262] 	lookupHopsSig:mean 	36.8
scalar Network.dyn_peer[263] 	lookupTimeSig:mean 	1.8125
scalar Network.dyn_peer[263] 	lookupStabilitySig:mean 	0.8981323587941
scalar Network.dyn_peer[263] 	lookupHopsSig:mean 	17.25
scalar Network.dyn_peer[264] 	lookupTimeSig:mean 	1.3333333333333
scalar Network.dyn_peer[264] 	lookupStabilitySig:mean 	0.88026992386828
scalar Network.dyn_peer[264] 	lookupHopsSig:mean 	12.416666666667
scalar Network.dyn_peer[265] 	lookupTimeSig:mean 	1.5
scalar Network.dyn_peer[265] 	lookupStabilitySig:mean 	0.098118305206299
scalar Network.dyn_peer[265] 	lookupHopsSig:mean 	14.5
scalar Network.dyn_peer[266] 	lookupTimeSig:mean 	1.5666666666667
scalar Network.dyn_peer[266] 	lookupStabilitySig:mean 	0.84061181265861
scalar Network.dyn_peer[266] 	lookupHopsSig:mean 	14.833333333333
scalar Network.dyn_peer[267] 	lookupTimeSig:mean 	2.075
scalar Network.dyn_peer[267] 	lookupStabilitySig:mean 	0.42994245886803
scalar Network.dyn_peer[267] 	lookupHopsSig:mean 	20
scalar Network.dyn_peer[268] 	lookupTimeSig:mean 	1.7666666666667
scalar Network.dyn_peer[268] 	lookupStabilitySig:mean 	0.76854677610875
scalar Network.dyn_peer[268] 	lookupHopsSig:mean 	16.75
scalar Network.dyn_peer[269] 	lookupTimeSig:mean 	2.5
scalar Network.dyn_peer[269] 	lookupStabilitySig:mean 	0.80567575618625
scalar Network.dyn_peer[269] 	lookupHopsSig:mean 	24.25
scalar Network.dyn_peer[270] 	lookupTimeSig:mean 	3.175
scalar Network.dyn_peer[270] 	lookupStabilitySig:mean 	0.66279594600201
scalar Network.dyn_peer[270] 	lookupHopsSig:mean 	31
scalar Network.dyn_peer[271] 	lookupTimeSig:mean 	1.825
scalar Network.dyn_peer[271] 	lookupStabilitySig:mean 	0.68619300075807
scalar Network.dyn_peer[271] 	lookupHopsSig:mean 	17.375
scalar Network.dyn_peer[272] 	lookupTimeSig:mean 	2.5333333333333
scalar Network.dyn_peer[272] 	lookupStabilitySig:mean 	0.16197343170643
scalar Network.dyn_peer[272] 	lookupHopsSig:mean 	24.666666666667
scalar Network.dyn_peer[273] 	lookupTimeSig:mean 	2.2333333333333
scalar Network.dyn_peer[273] 	lookupStabilitySig:mean 	0.65568709125121
scalar Network.dyn_peer[273] 	lookupHopsSig:mean 	21.666666666667
scalar Network.dyn_peer[274] 	lookupTimeSig:mean 	0.8
scalar Network.dyn_peer[274] 	lookupStabilitySig:mean 	0.39554987102747
scalar Network.dyn_peer[274] 	lookupHopsSig:mean 	7.25
scalar Network.dyn_peer[275] 	lookupTimeSig:mean 	1.225
scalar Network.dyn_peer[275] 	lookupStabilitySig:mean 	0.36740653403103
scalar Network.dyn_peer[275] 	lookupHopsSig:mean 	11.5
scalar Network.dyn_peer[276] 	lookupTimeSig:mean 	1.94
scalar Network.dyn_peer[276] 	lookupStabilitySig:mean 	0.57741907760501
scalar Network.dyn_peer[276] 	lookupHopsSig:mean 	18.6
scalar Network.dyn_peer[277] 	lookupTimeSig:mean 	2.16
scalar Network.dyn_peer[277] 	lookupStabilitySig:mean 	0.76651521287858
scalar Network.dyn_peer[277] 	lookupHopsSig:mean 	20.8
scalar Network.dyn_peer[278] 	lookupTimeSig:mean 	2.6333333333333
scalar Network.dyn_peer[278] 	lookupStabilitySig:mean 	0.87782186828554
scalar Network.dyn_peer[278] 	lookupHopsSig:mean 	25.5
scalar Network.dyn_peer[279] 	lookupTimeSig:mean 	1.8142857142857
scalar Network.dyn_peer[279] 	lookupStabilitySig:mean 	0.71903601554888
scalar Network.dyn_peer[279] 	lookupHopsSig:mean 	17.285714285714
scalar Network.dyn_peer[280] 	lookupTimeSig:mean 	2.1111111111111
scalar Network.dyn_peer[280] 	lookupStabilitySig:mean 	0.94396163585285
scalar Network.dyn_peer[280] 	lookupHopsSig:mean 	20.222222222222
scalar Network.dyn_peer[281] 	lookupTimeSig:mean 	1.8888888888889
scalar Network.dyn_peer[281] 	lookupStabilitySig:mean 	0.8104418773825
scalar Network.dyn_peer[281] 	lookupHopsSig:mean 	18
scalar Network.dyn_peer[282] 	lookupTimeSig:mean 	2.15
scalar Network.dyn_peer[282] 	lookupStabilitySig:mean 	0.44800982251763
scalar Network.dyn_peer[282] 	lookupHopsSig:mean 	20.75
scalar Network.dyn_peer[283] 	lookupTimeSig:mean 	1.32
scalar Network.dyn_peer[283] 	lookupStabilitySig:mean 	0.46368098929524
scalar Network.dyn_peer[283] 	lookupHopsSig:mean 	12.4
scalar Network.dyn_peer[284] 	lookupTimeSig:mean 	4.5333333333333
scalar Network.dyn_peer[284] 	lookupStabilitySig:mean 	0.88174388123055
scalar Network.dyn_peer[284] 	lookupHopsSig:mean 	44.666666666667
scalar Network.dyn_peer[285] 	lookupTimeSig:mean 	1.2571428571429
scalar Network.dyn_peer[285] 	lookupStabilitySig:mean 	0.70143538952938
scalar Network.dyn_peer[285] 	lookupHopsSig:mean 	11.714285714286
scalar Network.dyn_peer[286] 	lookupTimeSig:mean 	1.71
scalar Network.dyn_peer[286] 	lookupStabilitySig:mean 	0.78528183521703
scalar Network.dyn_peer[286] 	lookupHopsSig:mean 	16.2
scalar Network.dyn_peer[287] 	lookupTimeSig:mean 	1.6083333333333
scalar Network.dyn_peer[287] 	lookupStabilitySig:mean 	0.92240817619798
scalar Network.dyn_peer[287] 	lookupHopsSig:mean 	15.166666666667
scalar Network.dyn_peer[288] 	lookupTimeSig:mean 	1.4888888888889
scalar Network.dyn_peer[288] 	lookupStabilitySig:mean 	0.78957956398113
scalar Network.dyn_peer[288] 	lookupHopsSig:mean 	14
scalar Network.dyn_peer[289] 	lookupTimeSig:mean 	1.2333333333333
scalar Network.dyn_peer[289] 	lookupStabilitySig:mean 	0.65345326438546
scalar Network.dyn_peer[289] 	lookupHopsSig:mean 	11.5
scalar Network.dyn_peer[290] 	lookupTimeSig:mean 	2.5
scalar Network.dyn_peer[290] 	lookupStabilitySig:mean 	0.94237093169068
scalar Network.dyn_peer[290] 	lookupHopsSig:mean 	24.125
scalar Network.dyn_peer[291] 	lookupTimeSig:mean 	2.36
scalar Network.dyn_peer[291] 	lookupStabilitySig:mean 	0.57808794230223
scalar Network.dyn_peer[291] 	lookupHopsSig:mean 	22.8
scalar Network.dyn_peer[292] 	lookupTimeSig:mean 	2.4111111111111
scalar Network.dyn_peer[292] 	lookupStabilitySig:mean 	0.96329191259833
scalar Network.dyn_peer[292] 	lookupHopsSig:mean 	23.222222222222
scalar Network.dyn_peer[293] 	lookupTimeSig:mean 	1.5
scalar Network.dyn_peer[293] 	lookupStabilitySig:mean 	0.62390021421015
scalar Network.dyn_peer[293] 	lookupHopsSig:mean 	14.166666666667
scalar Network.dyn_peer[294] 	lookupTimeSig:mean 	1.85
scalar Network.dyn_peer[294] 	lookupStabilitySig:mean 	0.94169551169034
scalar Network.dyn_peer[294] 	lookupHopsSig:mean 	17.625
scalar Network.dyn_peer[295] 	lookupTimeSig:mean 	2.18
scalar Network.dyn_peer[295] 	lookupStabilitySig:mean 	0.79467312386259
scalar Network.dyn_peer[295] 	lookupHopsSig:mean 	20.9
scalar Network.dyn_peer[296] 	lookupTimeSig:mean 	2.0333333333333
scalar Network.dyn_peer[296] 	lookupStabilitySig:mean 	0.65446670353413
scalar Network.dyn_peer[296] 	lookupHopsSig:mean 	19.666666666667
scalar Network.dyn_peer[297] 	lookupTimeSig:mean 	2
scalar Network.dyn_peer[297] 	lookupStabilitySig:mean 	0.46843353984877
scalar Network.dyn_peer[297] 	lookupHopsSig:mean 	19.25
scalar Network.dyn_peer[298] 	lookupTimeSig:mean 	2.7
scalar Network.dyn_peer[298] 	lookupStabilitySig:mean 	0.89485271051526
scalar Network.dyn_peer[298] 	lookupHopsSig:mean 	26.2
scalar Network.dyn_peer[299] 	lookupTimeSig:mean 	1.74
scalar Network.dyn_peer[299] 	lookupStabilitySig:mean 	0.65011520422995
scalar Network.dyn_peer[299] 	lookupHopsSig:mean 	16.6
scalar Network.dyn_peer[300] 	lookupTimeSig:mean 	2.375
scalar Network.dyn_peer[300] 	lookupStabilitySig:mean 	0.44593005720526
scalar Network.dyn_peer[300] 	lookupHopsSig:mean 	23
scalar Network.dyn_peer[301] 	lookupTimeSig:mean 	1.14
scalar Network.dyn_peer[301] 	lookupStabilitySig:mean 	0.65756331980228
scalar Network.dyn_peer[301] 	lookupHopsSig:mean 	10.6
scalar Network.dyn_peer[302] 	lookupTimeSig:mean 	2.2857142857143
scalar Network.dyn_peer[302] 	lookupStabilitySig:mean 	0.91144529171288
scalar Network.dyn_peer[302] 	lookupHopsSig:mean 	22
scalar Network.dyn_peer[303] 	lookupTimeSig:mean 	1.6714285714286
scalar Network.dyn_peer[303] 	lookupStabilitySig:mean 	0.69787619901555
scalar Network.dyn_peer[303] 	lookupHopsSig:mean 	15.857142857143
scalar Network.dyn_peer[304] 	lookupTimeSig:mean 	3.4
scalar Network.dyn_peer[304] 	lookupStabilitySig:mean 	0.78091408312321
scalar Network.dyn_peer[304] 	lookupHopsSig:mean 	33.333333333333
scalar Network.dyn_peer[305] 	lookupTimeSig:mean 	2.56
scalar Network.dyn_peer[305] 	lookupStabilitySig:mean 	0.54337623417377
scalar Network.dyn_peer[305] 	lookupHopsSig:mean 	24.8
scalar Network.dyn_peer[306] 	lookupTimeSig:mean 	1.8416666666667
scalar Network.dyn_peer[306] 	lookupStabilitySig:mean 	0.9681842828868
scalar Network.dyn_peer[306] 	lookupHopsSig:mean 	17.5
scalar Network.dyn_peer[307] 	lookupTimeSig:mean 	1.4545454545455
scalar Network.dyn_peer[307] 	lookupStabilitySig:mean 	0.79567762938413
scalar Network.dyn_peer[307] 	lookupHopsSig:mean 	13.636363636364
scalar Network.dyn_peer[308] 	lookupTimeSig:mean 	2.125
scalar Network.dyn_peer[308] 	lookupStabilitySig:mean 	0.55939357448369
scalar Network.dyn_peer[308] 	lookupHopsSig:mean 	20.5
scalar Network.dyn_peer[309] 	lookupTimeSig:mean 	2.35
scalar Network.dyn_peer[309] 	lookupStabilitySig:mean 	0.14062501490116
scalar Network.dyn_peer[309] 	lookupHopsSig:mean 	23
scalar Network.dyn_peer[310] 	lookupTimeSig:mean 	2.95
scalar Network.dyn_peer[310] 	lookupStabilitySig:mean 	0.040441170334816
scalar Network.dyn_peer[310] 	lookupHopsSig:mean 	29
scalar Network.dyn_peer[311] 	lookupTimeSig:mean 	3.825
scalar Network.dyn_peer[311] 	lookupStabilitySig:mean 	0.84953252971172
scalar Network.dyn_peer[311] 	lookupHopsSig:mean 	37.5
scalar Network.dyn_peer[312] 	lookupTimeSig:mean 	1.6
scalar Network.dyn_peer[312] 	lookupStabilitySig:mean 	0.64417766146362
scalar Network.dyn_peer[312] 	lookupHopsSig:mean 	15.2
scalar Network.dyn_peer[313] 	lookupTimeSig:mean 	2.225
scalar Network.dyn_peer[313] 	lookupStabilitySig:mean 	0.4779059374705
scalar Network.dyn_peer[313] 	lookupHopsSig:mean 	21.5
scalar Network.dyn_peer[314] 	lookupTimeSig:mean 	1.72
scalar Network.dyn_peer[314] 	lookupStabilitySig:mean 	0.60110836029053
scalar Network.dyn_peer[314] 	lookupHopsSig:mean 	16.4
scalar Network.dyn_peer[315] 	lookupTimeSig:mean 	1.92
scalar Network.dyn_peer[315] 	lookupStabilitySig:mean 	0.87339459341019
scalar Network.dyn_peer[315] 	lookupHopsSig:mean 	18.4
scalar Network.dyn_peer[316] 	lookupTimeSig:mean 	2.0375
scalar Network.dyn_peer[316] 	lookupStabilitySig:mean 	0.69373627821915
scalar Network.dyn_peer[316] 	lookupHopsSig:mean 	19.5
scalar Network.dyn_peer[317] 	lookupTimeSig:mean 	1.25
scalar Network.dyn_peer[317] 	lookupStabilitySig:mean 	0.6150413705036
scalar Network.dyn_peer[317] 	lookupHopsSig:mean 	11.75
scalar Network.dyn_peer[318] 	lookupTimeSig:mean 	2.6
scalar Network.dyn_peer[318] 	lookupStabilitySig:mean 	0.26243767142296
scalar Network.dyn_peer[318] 	lookupHopsSig:mean 	25.333333333333
scalar Network.dyn_peer[319] 	lookupTimeSig:mean 	2.2
scalar Network.dyn_peer[319] 	lookupStabilitySig:mean 	0.85743295308203
scalar Network.dyn_peer[319] 	lookupHopsSig:mean 	21.25
scalar Network.dyn_peer[320] 	lookupTimeSig:mean 	1.65
scalar Network.dyn_peer[320] 	lookupStabilitySig:mean 	0.67959565925412
scalar Network.dyn_peer[320] 	lookupHopsSig:mean 	15.625
scalar Network.dyn_peer[321] 	lookupTimeSig:mean 	3.2
scalar Network.dyn_peer[321] 	lookupStabilitySig:mean 	0.38701404631138
scalar Network.dyn_peer[321] 	lookupHopsSig:mean 	31.333333333333
scalar Network.dyn_peer[322] 	lookupTimeSig:mean 	4.275
scalar Network.dyn_peer[322] 	lookupStabilitySig:mean 	0.92189082805999
scalar Network.dyn_peer[322] 	lookupHopsSig:mean 	42
scalar Network.dyn_peer[323] 	lookupTimeSig:mean 	2.4333333333333
scalar Network.dyn_peer[323] 	lookupStabilitySig:mean 	0.68197132150332
scalar Network.dyn_peer[323] 	lookupHopsSig:mean 	23.666666666667
scalar Network.dyn_peer[324] 	lookupTimeSig:mean 	2.06
scalar Network.dyn_peer[324] 	lookupStabilitySig:mean 	0.77978218644857
scalar Network.dyn_peer[324] 	lookupHopsSig:mean 	19.8
scalar Network.dyn_peer[325] 	lookupTimeSig:mean 	1.3
scalar Network.dyn_peer[325] 	lookupStabilitySig:mean 	0.6546209164496
scalar Network.dyn_peer[325] 	lookupHopsSig:mean 	12.142857142857
scalar Network.dyn_peer[326] 	lookupTimeSig:mean 	2.06
scalar Network.dyn_peer[326] 	lookupStabilitySig:mean 	0.87914885692298
scalar Network.dyn_peer[326] 	lookupHopsSig:mean 	19.8
scalar Network.dyn_peer[327] 	lookupTimeSig:mean 	1.2466666666667
scalar Network.dyn_peer[327] 	lookupStabilitySig:mean 	0.85578269409016
scalar Network.dyn_peer[327] 	lookupHopsSig:mean 	11.533333333333
scalar Network.dyn_peer[328] 	lookupTimeSig:mean 	2.475
scalar Network.dyn_peer[328] 	lookupStabilitySig:mean 	0.4875077009201
scalar Network.dyn_peer[328] 	lookupHopsSig:mean 	24
scalar Network.dyn_peer[329] 	lookupTimeSig:mean 	1.6166666666667
scalar Network.dyn_peer[329] 	lookupStabilitySig:mean 	0.64862722841402
scalar Network.dyn_peer[329] 	lookupHopsSig:mean 	15.333333333333
scalar Network.dyn_peer[330] 	lookupTimeSig:mean 	2.2
scalar Network.dyn_peer[330] 	lookupStabilitySig:mean 	0.68510040640831
scalar Network.dyn_peer[330] 	lookupHopsSig:mean 	21.333333333333
scalar Network.dyn_peer[331] 	lookupTimeSig:mean 	2.5285714285714
scalar Network.dyn_peer[331] 	lookupStabilitySig:mean 	0.94112119650734
scalar Network.dyn_peer[331] 	lookupHopsSig:mean 	24.428571428571
scalar Network.dyn_peer[332] 	lookupTimeSig:mean 	1.1692307692308
scalar Network.dyn_peer[332] 	lookupStabilitySig:mean 	0.92001678128369
scalar Network.dyn_peer[332] 	lookupHopsSig:mean 	10.769230769231
scalar Network.dyn_peer[333] 	lookupTimeSig:mean 	3.5
scalar Network.dyn_peer[333] 	lookupStabilitySig:mean 	0.087092742323875
scalar Network.dyn_peer[333] 	lookupHopsSig:mean 	34.5
scalar Network.dyn_peer[334] 	lookupTimeSig:mean 	2.74
scalar Network.dyn_peer[334] 	lookupStabilitySig:mean 	0.64786732345819
scalar Network.dyn_peer[334] 	lookupHopsSig:mean 	26.6
scalar Network.dyn_peer[335] 	lookupTimeSig:mean 	1.03
scalar Network.dyn_peer[335] 	lookupStabilitySig:mean 	0.77477283235639
scalar Network.dyn_peer[335] 	lookupHopsSig:mean 	9.4
scalar Network.dyn_peer[336] 	lookupTimeSig:mean 	1.66
scalar Network.dyn_peer[336] 	lookupStabilitySig:mean 	0.91175204738975
scalar Network.dyn_peer[336] 	lookupHopsSig:mean 	15.7
scalar Network.dyn_peer[337] 	lookupTimeSig:mean 	1.6333333333333
scalar Network.dyn_peer[337] 	lookupStabilitySig:mean 	0.8302453411743
scalar Network.dyn_peer[337] 	lookupHopsSig:mean 	15.5
scalar Network.dyn_peer[338] 	lookupTimeSig:mean 	3.4833333333333
scalar Network.dyn_peer[338] 	lookupStabilitySig:mean 	0.95156341822197
scalar Network.dyn_peer[338] 	lookupHopsSig:mean 	34
scalar Network.dyn_peer[339] 	lookupTimeSig:mean 	2.1666666666667
scalar Network.dyn_peer[339] 	lookupStabilitySig:mean 	0.95146727955176
scalar Network.dyn_peer[339] 	lookupHopsSig:mean 	20.777777777778
scalar Network.dyn_peer[340] 	lookupTimeSig:mean 	3.25
scalar Network.dyn_peer[340] 	lookupStabilitySig:mean 	0.69560023769736
scalar Network.dyn_peer[340] 	lookupHopsSig:mean 	32
scalar Network.dyn_peer[341] 	lookupTimeSig:mean 	1.6384615384615
scalar Network.dyn_peer[341] 	lookupStabilitySig:mean 	0.87620782819935
scalar Network.dyn_peer[341] 	lookupHopsSig:mean 	15.461538461538
scalar Network.dyn_peer[342] 	lookupTimeSig:mean 	3.16
scalar Network.dyn_peer[342] 	lookupStabilitySig:mean 	0.71465449184179
scalar Network.dyn_peer[342] 	lookupHopsSig:mean 	30.8
scalar Network.dyn_peer[343] 	lookupTimeSig:mean 	1.975
scalar Network.dyn_peer[343] 	lookupStabilitySig:mean 	0.79866077878978
scalar Network.dyn_peer[343] 	lookupHopsSig:mean 	18.875
scalar Network.dyn_peer[344] 	lookupTimeSig:mean 	3.55
scalar Network.dyn_peer[344] 	lookupStabilitySig:mean 	0.77633441705257
scalar Network.dyn_peer[344] 	lookupHopsSig:mean 	34.75
scalar Network.dyn_peer[345] 	lookupTimeSig:mean 	1.56
scalar Network.dyn_peer[345] 	lookupStabilitySig:mean 	0.56707873344421
scalar Network.dyn_peer[345] 	lookupHopsSig:mean 	14.8
scalar Network.dyn_peer[346] 	lookupTimeSig:mean 	2.38
scalar Network.dyn_peer[346] 	lookupStabilitySig:mean 	0.85723811388016
scalar Network.dyn_peer[346] 	lookupHopsSig:mean 	23
scalar Network.dyn_peer[347] 	lookupTimeSig:mean 	2.35
scalar Network.dyn_peer[347] 	lookupStabilitySig:mean 	0.92808203243961
scalar Network.dyn_peer[347] 	lookupHopsSig:mean 	22.666666666667
scalar Network.dyn_peer[348] 	lookupTimeSig:mean 	1.6333333333333
scalar Network.dyn_peer[348] 	lookupStabilitySig:mean 	0.74213198944926
scalar Network.dyn_peer[348] 	lookupHopsSig:mean 	15.5
scalar Network.dyn_peer[349] 	lookupTimeSig:mean 	1.6833333333333
scalar Network.dyn_peer[349] 	lookupStabilitySig:mean 	0.80321768671274
scalar Network.dyn_peer[349] 	lookupHopsSig:mean 	16
scalar Network.dyn_peer[350] 	lookupTimeSig:mean 	1.8333333333333
scalar Network.dyn_peer[350] 	lookupStabilitySig:mean 	0.34434613088767
scalar Network.dyn_peer[350] 	lookupHopsSig:mean 	17.666666666667
scalar Network.dyn_peer[351] 	lookupTimeSig:mean 	2.1333333333333
scalar Network.dyn_peer[351] 	lookupStabilitySig:mean 	0.64112814267476
scalar Network.dyn_peer[351] 	lookupHopsSig:mean 	20.666666666667
scalar Network.dyn_peer[352] 	lookupTimeSig:mean 	2.1833333333333
scalar Network.dyn_peer[352] 	lookupStabilitySig:mean 	0.81194939526419
scalar Network.dyn_peer[352] 	lookupHopsSig:mean 	21
scalar Network.dyn_peer[353] 	lookupTimeSig:mean 	1.9333333333333
scalar Network.dyn_peer[353] 	lookupStabilitySig:mean 	0.4869820078214
scalar Network.dyn_peer[353] 	lookupHopsSig:mean 	18.666666666667
scalar Network.dyn_peer[354] 	lookupTimeSig:mean 	1.825
scalar Network.dyn_peer[354] 	lookupStabilitySig:mean 	0.57485059835017
scalar Network.dyn_peer[354] 	lookupHopsSig:mean 	17.5
scalar Network.dyn_peer[355] 	lookupTimeSig:mean 	1.4
scalar Network.dyn_peer[355] 	lookupStabilitySig:mean 	0.61222328692675
scalar Network.dyn_peer[355] 	lookupHopsSig:mean 	13.2
scalar Network.dyn_peer[356] 	lookupTimeSig:mean 	2.725
scalar Network.dyn_peer[356] 	lookupStabilitySig:mean 	0.78451619925909
scalar Network.dyn_peer[356] 	lookupHopsSig:mean 	26.5
scalar Network.dyn_peer[357] 	lookupTimeSig:mean 	1.8857142857143
scalar Network.dyn_peer[357] 	lookupStabilitySig:mean 	0.86387831212154
scalar Network.dyn_peer[357] 	lookupHopsSig:mean 	18
scalar Network.dyn_peer[358] 	lookupTimeSig:mean 	1.5555555555556
scalar Network.dyn_peer[358] 	lookupStabilitySig:mean 	0.88829305250612
scalar Network.dyn_peer[358] 	lookupHopsSig:mean 	14.666666666667
scalar Network.dyn_peer[359] 	lookupTimeSig:mean 	1.54
scalar Network.dyn_peer[359] 	lookupStabilitySig:mean 	0.69920544922352
scalar Network.dyn_peer[359] 	lookupHopsSig:mean 	14.6
scalar Network.dyn_peer[360] 	lookupTimeSig:mean 	1.8333333333333
scalar Network.dyn_peer[360] 	lookupStabilitySig:mean 	0.32664234687885
scalar Network.dyn_peer[360] 	lookupHopsSig:mean 	17.666666666667
scalar Network.dyn_peer[361] 	lookupTimeSig:mean 	1.5
scalar Network.dyn_peer[361] 	lookupStabilitySig:mean 	0.69978699584802
scalar Network.dyn_peer[361] 	lookupHopsSig:mean 	14.333333333333
scalar Network.dyn_peer[362] 	lookupTimeSig:mean 	2.1375
scalar Network.dyn_peer[362] 	lookupStabilitySig:mean 	0.8924578842707
scalar Network.dyn_peer[362] 	lookupHopsSig:mean 	20.5
scalar Network.dyn_peer[363] 	lookupTimeSig:mean 	1
scalar Network.dyn_peer[363] 	lookupStabilitySig:mean 	0.52975704297423
scalar Network.dyn_peer[363] 	lookupHopsSig:mean 	9.2
scalar Network.dyn_peer[364] 	lookupTimeSig:mean 	2.7714285714286
scalar Network.dyn_peer[364] 	lookupStabilitySig:mean 	0.95050202349999
scalar Network.dyn_peer[364] 	lookupHopsSig:mean 	26.857142857143
scalar Network.dyn_peer[365] 	lookupTimeSig:mean 	4.4
scalar Network.dyn_peer[365] 	lookupStabilitySig:mean 	0.53957451879978
scalar Network.dyn_peer[365] 	lookupHopsSig:mean 	43.5
scalar Network.dyn_peer[366] 	lookupTimeSig:mean 	2.2
scalar Network.dyn_peer[366] 	lookupStabilitySig:mean 	0.95548643067909
scalar Network.dyn_peer[366] 	lookupHopsSig:mean 	21.076923076923
scalar Network.dyn_peer[367] 	lookupTimeSig:mean 	1.95
scalar Network.dyn_peer[367] 	lookupStabilitySig:mean 	0.68651304983844
scalar Network.dyn_peer[367] 	lookupHopsSig:mean 	18.666666666667
scalar Network.dyn_peer[368] 	lookupTimeSig:mean 	1.2785714285714
scalar Network.dyn_peer[368] 	lookupStabilitySig:mean 	0.83499356143044
scalar Network.dyn_peer[368] 	lookupHopsSig:mean 	11.857142857143
scalar Network.dyn_peer[369] 	lookupTimeSig:mean 	2.6571428571429
scalar Network.dyn_peer[369] 	lookupStabilitySig:mean 	0.95260474804257
scalar Network.dyn_peer[369] 	lookupHopsSig:mean 	25.714285714286
scalar Network.dyn_peer[370] 	lookupTimeSig:mean 	1.5818181818182
scalar Network.dyn_peer[370] 	lookupStabilitySig:mean 	0.81688223203475
scalar Network.dyn_peer[370] 	lookupHopsSig:mean 	14.909090909091
scalar Network.dyn_peer[371] 	lookupTimeSig:mean 	2.025
scalar Network.dyn_peer[371] 	lookupStabilitySig:mean 	0.83073420450091
scalar Network.dyn_peer[371] 	lookupHopsSig:mean 	19.5
scalar Network.dyn_peer[372] 	lookupTimeSig:mean 	1.8
scalar Network.dyn_peer[372] 	lookupStabilitySig:mean 	0.68696017749608
scalar Network.dyn_peer[372] 	lookupHopsSig:mean 	17.2
scalar Network.dyn_peer[373] 	lookupTimeSig:mean 	2.025
scalar Network.dyn_peer[373] 	lookupStabilitySig:mean 	0.68075189646333
scalar Network.dyn_peer[373] 	lookupHopsSig:mean 	19.5
scalar Network.dyn_peer[374] 	lookupTimeSig:mean 	1.8571428571429
scalar Network.dyn_peer[374] 	lookupStabilitySig:mean 	0.93397530201556
scalar Network.dyn_peer[374] 	lookupHopsSig:mean 	17.642857142857
scalar Network.dyn_peer[375] 	lookupTimeSig:mean 	4.25
scalar Network.dyn_peer[375] 	lookupStabilitySig:mean 	0.67244669795036
scalar Network.dyn_peer[375] 	lookupHopsSig:mean 	42
scalar Network.dyn_peer[376] 	lookupTimeSig:mean 	1.4428571428571
scalar Network.dyn_peer[376] 	lookupStabilitySig:mean 	0.908000692193
scalar Network.dyn_peer[376] 	lookupHopsSig:mean 	13.571428571429
scalar Network.dyn_peer[377] 	lookupTimeSig:mean 	1.6285714285714
scalar Network.dyn_peer[377] 	lookupStabilitySig:mean 	0.67969765753618
scalar Network.dyn_peer[377] 	lookupHopsSig:mean 	15.428571428571
scalar Network.dyn_peer[378] 	lookupTimeSig:mean 	1.9
scalar Network.dyn_peer[378] 	lookupStabilitySig:mean 	0.58421053737402
scalar Network.dyn_peer[378] 	lookupHopsSig:mean 	18.5
scalar Network.dyn_peer[379] 	lookupTimeSig:mean 	2.4571428571429
scalar Network.dyn_peer[379] 	lookupStabilitySig:mean 	0.93932081532798
scalar Network.dyn_peer[379] 	lookupHopsSig:mean 	23.714285714286
scalar Network.dyn_peer[380] 	lookupTimeSig:mean 	1.45
scalar Network.dyn_peer[380] 	lookupStabilitySig:mean 	0.68837850447744
scalar Network.dyn_peer[380] 	lookupHopsSig:mean 	13.75
scalar Network.dyn_peer[381] 	lookupTimeSig:mean 	2.125
scalar Network.dyn_peer[381] 	lookupStabilitySig:mean 	0.87553419731557
scalar Network.dyn_peer[381] 	lookupHopsSig:mean 	20.375
scalar Network.dyn_peer[382] 	lookupTimeSig:mean 	1.56
scalar Network.dyn_peer[382] 	lookupStabilitySig:mean 	0.56559812277555
scalar Network.dyn_peer[382] 	lookupHopsSig:mean 	14.8
scalar Network.dyn_peer[383] 	lookupTimeSig:mean 	1.2611111111111
scalar Network.dyn_peer[383] 	lookupStabilitySig:mean 	0.9016611824433
scalar Network.dyn_peer[383] 	lookupHopsSig:mean 	11.666666666667
scalar Network.dyn_peer[384] 	lookupTimeSig:mean 	2.7666666666667
scalar Network.dyn_peer[384] 	lookupStabilitySig:mean 	0.67251665998871
scalar Network.dyn_peer[384] 	lookupHopsSig:mean 	26.833333333333
scalar Network.dyn_peer[385] 	lookupTimeSig:mean 	1.7916666666667
scalar Network.dyn_peer[385] 	lookupStabilitySig:mean 	0.94377079652622
scalar Network.dyn_peer[385] 	lookupHopsSig:mean 	17
scalar Network.dyn_peer[386] 	lookupTimeSig:mean 	1.95
scalar Network.dyn_peer[386] 	lookupStabilitySig:mean 	0.87411170701186
scalar Network.dyn_peer[386] 	lookupHopsSig:mean 	18.666666666667
scalar Network.dyn_peer[387] 	lookupTimeSig:mean 	1.55
scalar Network.dyn_peer[387] 	lookupStabilitySig:mean 	0.49121651425958
scalar Network.dyn_peer[387] 	lookupHopsSig:mean 	14.75
scalar Network.dyn_peer[388] 	lookupTimeSig:mean 	2.0375
scalar Network.dyn_peer[388] 	lookupStabilitySig:mean 	0.92024150665384
scalar Network.dyn_peer[388] 	lookupHopsSig:mean 	19.5
scalar Network.dyn_peer[389] 	lookupTimeSig:mean 	1.21
scalar Network.dyn_peer[389] 	lookupStabilitySig:mean 	0.8633132099174
scalar Network.dyn_peer[389] 	lookupHopsSig:mean 	11.2
scalar Network.dyn_peer[390] 	lookupTimeSig:mean 	2.92
scalar Network.dyn_peer[390] 	lookupStabilitySig:mean 	0.79227885715663
scalar Network.dyn_peer[390] 	lookupHopsSig:mean 	28.4
scalar Network.dyn_peer[391] 	lookupTimeSig:mean 	1.9
scalar Network.dyn_peer[391] 	lookupStabilitySig:mean 	0.20581896603107
scalar Network.dyn_peer[391] 	lookupHopsSig:mean 	18.5
scalar Network.dyn_peer[392] 	lookupTimeSig:mean 	2.3
scalar Network.dyn_peer[392] 	lookupStabilitySig:mean 	0.58102657534182
scalar Network.dyn_peer[392] 	lookupHopsSig:mean 	22.2
scalar Network.dyn_peer[393] 	lookupTimeSig:mean 	1.6941176470588
scalar Network.dyn_peer[393] 	lookupStabilitySig:mean 	0.93221035525751
scalar Network.dyn_peer[393] 	lookupHopsSig:mean 	16
scalar Network.dyn_peer[394] 	lookupTimeSig:mean 	1.95
scalar Network.dyn_peer[394] 	lookupStabilitySig:mean 	0.88622258254327
scalar Network.dyn_peer[394] 	lookupHopsSig:mean 	18.75
scalar Network.dyn_peer[395] 	lookupTimeSig:mean 	4.4
scalar Network.dyn_peer[395] 	lookupStabilitySig:mean 	0.77921348065138
scalar Network.dyn_peer[395] 	lookupHopsSig:mean 	43.5
scalar Network.dyn_peer[396] 	lookupTimeSig:mean 	2.19
scalar Network.dyn_peer[396] 	lookupStabilitySig:mean 	0.86673906138167
scalar Network.dyn_peer[396] 	lookupHopsSig:mean 	21
scalar Network.dyn_peer[397] 	lookupTimeSig:mean 	2.0875
scalar Network.dyn_peer[397] 	lookupStabilitySig:mean 	0.9110009217402
scalar Network.dyn_peer[397] 	lookupHopsSig:mean 	20
scalar Network.dyn_peer[398] 	lookupTimeSig:mean 	3.7
scalar Network.dyn_peer[398] 	lookupStabilitySig:mean 	0.63678666204214
scalar Network.dyn_peer[398] 	lookupHopsSig:mean 	36.5
scalar Network.dyn_peer[399] 	lookupTimeSig:mean 	2.08
scalar Network.dyn_peer[399] 	lookupStabilitySig:mean 	0.94993164255284
scalar Network.dyn_peer[399] 	lookupHopsSig:mean 	19.9
scalar Network.dyn_peer[400] 	lookupTimeSig:mean 	3.2166666666667
scalar Network.dyn_peer[400] 	lookupStabilitySig:mean 	0.89816072086493
scalar Network.dyn_peer[400] 	lookupHopsSig:mean 	31.333333333333
scalar Network.dyn_peer[401] 	lookupTimeSig:mean 	2.6375
scalar Network.dyn_peer[401] 	lookupStabilitySig:mean 	0.94682508968981
scalar Network.dyn_peer[401] 	lookupHopsSig:mean 	25.5
scalar Network.dyn_peer[402] 	lookupTimeSig:mean 	1.125
scalar Network.dyn_peer[402] 	lookupStabilitySig:mean 	0.54264346882701
scalar Network.dyn_peer[402] 	lookupHopsSig:mean 	10.5
scalar Network.dyn_peer[403] 	lookupTimeSig:mean 	1.4666666666667
scalar Network.dyn_peer[403] 	lookupStabilitySig:mean 	0.79499031489508
scalar Network.dyn_peer[403] 	lookupHopsSig:mean 	13.777777777778
scalar Network.dyn_peer[404] 	lookupTimeSig:mean 	2.1571428571429
scalar Network.dyn_peer[404] 	lookupStabilitySig:mean 	0.94144026815359
scalar Network.dyn_peer[404] 	lookupHopsSig:mean 	20.714285714286
scalar Network.dyn_peer[405] 	lookupTimeSig:mean 	2.575
scalar Network.dyn_peer[405] 	lookupStabilitySig:mean 	0.62566236406565
scalar Network.dyn_peer[405] 	lookupHopsSig:mean 	25
scalar Network.dyn_peer[406] 	lookupTimeSig:mean 	2.7
scalar Network.dyn_peer[406] 	lookupStabilitySig:mean 	0.7067260563684
scalar Network.dyn_peer[406] 	lookupHopsSig:mean 	26.166666666667
scalar Network.dyn_peer[407] 	lookupTimeSig:mean 	1.96
scalar Network.dyn_peer[407] 	lookupStabilitySig:mean 	0.61316030323505
scalar Network.dyn_peer[407] 	lookupHopsSig:mean 	18.8
scalar Network.dyn_peer[408] 	lookupTimeSig:mean 	1.9857142857143
scalar Network.dyn_peer[408] 	lookupStabilitySig:mean 	0.92427536791989
scalar Network.dyn_peer[408] 	lookupHopsSig:mean 	19
scalar Network.dyn_peer[409] 	lookupTimeSig:mean 	1.0833333333333
scalar Network.dyn_peer[409] 	lookupStabilitySig:mean 	0.64939388881127
scalar Network.dyn_peer[409] 	lookupHopsSig:mean 	10
scalar Network.dyn_peer[410] 	lookupTimeSig:mean 	1.2833333333333
scalar Network.dyn_peer[410] 	lookupStabilitySig:mean 	0.82544693397358
scalar Network.dyn_peer[410] 	lookupHopsSig:mean 	11.916666666667
scalar Network.dyn_peer[411] 	lookupTimeSig:mean 	1.725
scalar Network.dyn_peer[411] 	lookupStabilitySig:mean 	0.7639087208081
scalar Network.dyn_peer[411] 	lookupHopsSig:mean 	16.375
scalar Network.dyn_peer[412] 	lookupTimeSig:mean 	1.8555555555556
scalar Network.dyn_peer[412] 	lookupStabilitySig:mean 	0.88098101141966
scalar Network.dyn_peer[412] 	lookupHopsSig:mean 	17.666666666667
scalar Network.dyn_peer[413] 	lookupTimeSig:mean 	1.4
scalar Network.dyn_peer[413] 	lookupStabilitySig:mean 	0.49190386757255
scalar Network.dyn_peer[413] 	lookupHopsSig:mean 	13.25
scalar Network.dyn_peer[414] 	lookupTimeSig:mean 	1.8142857142857
scalar Network.dyn_peer[414] 	lookupStabilitySig:mean 	0.88169223362846
scalar Network.dyn_peer[414] 	lookupHopsSig:mean 	17.285714285714
scalar Network.dyn_peer[415] 	lookupTimeSig:mean 	3.3
scalar Network.dyn_peer[415] 	lookupStabilitySig:mean 	0.15538251399994
scalar Network.dyn_peer[415] 	lookupHopsSig:mean 	32.5
scalar Network.dyn_peer[416] 	lookupTimeSig:mean 	1.6777777777778
scalar Network.dyn_peer[416] 	lookupStabilitySig:mean 	0.76991922408342
scalar Network.dyn_peer[416] 	lookupHopsSig:mean 	15.888888888889
scalar Network.dyn_peer[417] 	lookupTimeSig:mean 	2.75
scalar Network.dyn_peer[417] 	lookupStabilitySig:mean 	0.92171413296213
scalar Network.dyn_peer[417] 	lookupHopsSig:mean 	26.666666666667
scalar Network.dyn_peer[418] 	lookupTimeSig:mean 	1.6111111111111
scalar Network.dyn_peer[418] 	lookupStabilitySig:mean 	0.8055333254031
scalar Network.dyn_peer[418] 	lookupHopsSig:mean 	15.222222222222
scalar Network.dyn_peer[419] 	lookupTimeSig:mean 	2.7
scalar Network.dyn_peer[419] 	lookupStabilitySig:mean 	0.61111110448837
scalar Network.dyn_peer[419] 	lookupHopsSig:mean 	26.5
scalar Network.dyn_peer[420] 	lookupTimeSig:mean 	1.7571428571429
[...]
scalar Network.dyn_peer[895] 	lookupStabilitySig:mean 	0.60519344607989
scalar Network.dyn_peer[895] 	lookupHopsSig:mean 	9.6666666666667
scalar Network.dyn_peer[896] 	lookupTimeSig:mean 	1.7111111111111
scalar Network.dyn_peer[896] 	lookupStabilitySig:mean 	0.93364341826075
scalar Network.dyn_peer[896] 	lookupHopsSig:mean 	16.222222222222
scalar Network.dyn_peer[897] 	lookupTimeSig:mean 	1.4
scalar Network.dyn_peer[897] 	lookupStabilitySig:mean 	0.75238424000175
scalar Network.dyn_peer[897] 	lookupHopsSig:mean 	13.166666666667
scalar Network.dyn_peer[898] 	lookupTimeSig:mean 	3.375
scalar Network.dyn_peer[898] 	lookupStabilitySig:mean 	0.86491192504764
scalar Network.dyn_peer[898] 	lookupHopsSig:mean 	33
scalar Network.dyn_peer[899] 	lookupTimeSig:mean 	1.4888888888889
scalar Network.dyn_peer[899] 	lookupStabilitySig:mean 	0.94021686549402
scalar Network.dyn_peer[899] 	lookupHopsSig:mean 	14
scalar Network.dyn_peer[900] 	lookupTimeSig:mean 	1.425
scalar Network.dyn_peer[900] 	lookupStabilitySig:mean 	0.87471893096032
scalar Network.dyn_peer[900] 	lookupHopsSig:mean 	13.333333333333
scalar Network.dyn_peer[901] 	lookupTimeSig:mean 	1.7636363636364
scalar Network.dyn_peer[901] 	lookupStabilitySig:mean 	0.94760005730628
scalar Network.dyn_peer[901] 	lookupHopsSig:mean 	16.727272727273
scalar Network.dyn_peer[902] 	lookupTimeSig:mean 	2.2888888888889
scalar Network.dyn_peer[902] 	lookupStabilitySig:mean 	0.96284481293211
scalar Network.dyn_peer[902] 	lookupHopsSig:mean 	22
scalar Network.dyn_peer[903] 	lookupTimeSig:mean 	2.05
scalar Network.dyn_peer[903] 	lookupStabilitySig:mean 	0.68213194096461
scalar Network.dyn_peer[903] 	lookupHopsSig:mean 	19.75
scalar Network.dyn_peer[904] 	lookupTimeSig:mean 	2.275
scalar Network.dyn_peer[904] 	lookupStabilitySig:mean 	0.82836999185383
scalar Network.dyn_peer[904] 	lookupHopsSig:mean 	22
scalar Network.dyn_peer[905] 	lookupTimeSig:mean 	1.9
scalar Network.dyn_peer[905] 	lookupStabilitySig:mean 	0.90557149802335
scalar Network.dyn_peer[905] 	lookupHopsSig:mean 	18.1
scalar Network.dyn_peer[906] 	lookupTimeSig:mean 	3.2
scalar Network.dyn_peer[906] 	lookupStabilitySig:mean 	0.73756944015622
scalar Network.dyn_peer[906] 	lookupHopsSig:mean 	31.5
scalar Network.dyn_peer[907] 	lookupTimeSig:mean 	1.5
scalar Network.dyn_peer[907] 	lookupStabilitySig:mean 	0.96103821789277
scalar Network.dyn_peer[907] 	lookupHopsSig:mean 	14.055555555556
scalar Network.dyn_peer[908] 	lookupTimeSig:mean 	4
scalar Network.dyn_peer[908] 	lookupStabilitySig:mean 	0.51624019443989
scalar Network.dyn_peer[908] 	lookupHopsSig:mean 	39.333333333333
scalar Network.dyn_peer[909] 	lookupTimeSig:mean 	1.5
scalar Network.dyn_peer[909] 	lookupStabilitySig:mean 	0.43557422608137
scalar Network.dyn_peer[909] 	lookupHopsSig:mean 	14.5
scalar Network.dyn_peer[910] 	lookupTimeSig:mean 	2.2333333333333
scalar Network.dyn_peer[910] 	lookupStabilitySig:mean 	0.89787239084641
scalar Network.dyn_peer[910] 	lookupHopsSig:mean 	21.5
scalar Network.dyn_peer[911] 	lookupTimeSig:mean 	3.025
scalar Network.dyn_peer[911] 	lookupStabilitySig:mean 	0.63112984551117
scalar Network.dyn_peer[911] 	lookupHopsSig:mean 	29.5
scalar Network.dyn_peer[912] 	lookupTimeSig:mean 	1.9
scalar Network.dyn_peer[912] 	lookupStabilitySig:mean 	0.89969840785488
scalar Network.dyn_peer[912] 	lookupHopsSig:mean 	18.166666666667
scalar Network.dyn_peer[913] 	lookupTimeSig:mean 	2.0833333333333
scalar Network.dyn_peer[913] 	lookupStabilitySig:mean 	0.93256361503154
scalar Network.dyn_peer[913] 	lookupHopsSig:mean 	20
scalar Network.dyn_peer[914] 	lookupTimeSig:mean 	1.2875
scalar Network.dyn_peer[914] 	lookupStabilitySig:mean 	0.87931539688725
scalar Network.dyn_peer[914] 	lookupHopsSig:mean 	12
scalar Network.dyn_peer[915] 	lookupTimeSig:mean 	1.2125
scalar Network.dyn_peer[915] 	lookupStabilitySig:mean 	0.866263734526
scalar Network.dyn_peer[915] 	lookupHopsSig:mean 	11.25
scalar Network.dyn_peer[916] 	lookupTimeSig:mean 	1.375
scalar Network.dyn_peer[916] 	lookupStabilitySig:mean 	0.88892063574167
scalar Network.dyn_peer[916] 	lookupHopsSig:mean 	12.875
scalar Network.dyn_peer[917] 	lookupTimeSig:mean 	2.6375
scalar Network.dyn_peer[917] 	lookupStabilitySig:mean 	0.80074203526601
scalar Network.dyn_peer[917] 	lookupHopsSig:mean 	25.5
scalar Network.dyn_peer[918] 	lookupTimeSig:mean 	2.05
scalar Network.dyn_peer[918] 	lookupStabilitySig:mean 	0.70102041214705
scalar Network.dyn_peer[918] 	lookupHopsSig:mean 	20
scalar Network.dyn_peer[919] 	lookupTimeSig:mean 	1.975
scalar Network.dyn_peer[919] 	lookupStabilitySig:mean 	0.92944204353262
scalar Network.dyn_peer[919] 	lookupHopsSig:mean 	18.875
scalar Network.dyn_peer[920] 	lookupTimeSig:mean 	2.5875
scalar Network.dyn_peer[920] 	lookupStabilitySig:mean 	0.95766670961166
scalar Network.dyn_peer[920] 	lookupHopsSig:mean 	25
scalar Network.dyn_peer[921] 	lookupTimeSig:mean 	4.5666666666667
scalar Network.dyn_peer[921] 	lookupStabilitySig:mean 	0.78350666662057
scalar Network.dyn_peer[921] 	lookupHopsSig:mean 	45
scalar Network.dyn_peer[922] 	lookupTimeSig:mean 	2.33
scalar Network.dyn_peer[922] 	lookupStabilitySig:mean 	0.89362582094036
scalar Network.dyn_peer[922] 	lookupHopsSig:mean 	22.4
scalar Network.dyn_peer[923] 	lookupTimeSig:mean 	5.85
scalar Network.dyn_peer[923] 	lookupStabilitySig:mean 	0.76093079522252
scalar Network.dyn_peer[923] 	lookupHopsSig:mean 	58
scalar Network.dyn_peer[924] 	lookupTimeSig:mean 	1.0909090909091
scalar Network.dyn_peer[924] 	lookupStabilitySig:mean 	0.94481338765896
scalar Network.dyn_peer[924] 	lookupHopsSig:mean 	10
scalar Network.dyn_peer[925] 	lookupTimeSig:mean 	1.4666666666667
scalar Network.dyn_peer[925] 	lookupStabilitySig:mean 	0.76924721586208
scalar Network.dyn_peer[925] 	lookupHopsSig:mean 	13.833333333333
scalar Network.dyn_peer[926] 	lookupTimeSig:mean 	2.3
scalar Network.dyn_peer[926] 	lookupStabilitySig:mean 	0.8939564794302
scalar Network.dyn_peer[926] 	lookupHopsSig:mean 	22.2
scalar Network.dyn_peer[927] 	lookupTimeSig:mean 	3.3333333333333
scalar Network.dyn_peer[927] 	lookupStabilitySig:mean 	0.93819005244101
scalar Network.dyn_peer[927] 	lookupHopsSig:mean 	32.5
scalar Network.dyn_peer[928] 	lookupTimeSig:mean 	1.38
scalar Network.dyn_peer[928] 	lookupStabilitySig:mean 	0.72613916173577
scalar Network.dyn_peer[928] 	lookupHopsSig:mean 	13
scalar Network.dyn_peer[929] 	lookupTimeSig:mean 	2.72
scalar Network.dyn_peer[929] 	lookupStabilitySig:mean 	0.88446447309107
scalar Network.dyn_peer[929] 	lookupHopsSig:mean 	26.4
scalar Network.dyn_peer[930] 	lookupTimeSig:mean 	1.7
scalar Network.dyn_peer[930] 	lookupStabilitySig:mean 	0.74306002507607
scalar Network.dyn_peer[930] 	lookupHopsSig:mean 	16.333333333333
scalar Network.dyn_peer[931] 	lookupTimeSig:mean 	1.5
scalar Network.dyn_peer[931] 	lookupStabilitySig:mean 	0.5528897518913
scalar Network.dyn_peer[931] 	lookupHopsSig:mean 	14.333333333333
scalar Network.dyn_peer[932] 	lookupTimeSig:mean 	1.4166666666667
scalar Network.dyn_peer[932] 	lookupStabilitySig:mean 	0.76891894483318
scalar Network.dyn_peer[932] 	lookupHopsSig:mean 	13.333333333333
scalar Network.dyn_peer[933] 	lookupTimeSig:mean 	2.7285714285714
scalar Network.dyn_peer[933] 	lookupStabilitySig:mean 	0.96048735368199
scalar Network.dyn_peer[933] 	lookupHopsSig:mean 	26.428571428571
scalar Network.dyn_peer[934] 	lookupTimeSig:mean 	2.1444444444444
scalar Network.dyn_peer[934] 	lookupStabilitySig:mean 	0.96070045781218
scalar Network.dyn_peer[934] 	lookupHopsSig:mean 	20.555555555556
scalar Network.dyn_peer[935] 	lookupTimeSig:mean 	2.7
scalar Network.dyn_peer[935] 	lookupStabilitySig:mean 	0.78020619321615
scalar Network.dyn_peer[935] 	lookupHopsSig:mean 	26.166666666667
scalar Network.dyn_peer[936] 	lookupTimeSig:mean 	1.65
scalar Network.dyn_peer[936] 	lookupStabilitySig:mean 	0.88810434110928
scalar Network.dyn_peer[936] 	lookupHopsSig:mean 	15.625
scalar Network.dyn_peer[937] 	lookupTimeSig:mean 	2.1142857142857
scalar Network.dyn_peer[937] 	lookupStabilitySig:mean 	0.92918970994651
scalar Network.dyn_peer[937] 	lookupHopsSig:mean 	20.285714285714
scalar Network.dyn_peer[938] 	lookupTimeSig:mean 	2.04
scalar Network.dyn_peer[938] 	lookupStabilitySig:mean 	0.72144563496113
scalar Network.dyn_peer[938] 	lookupHopsSig:mean 	19.6
scalar Network.dyn_peer[939] 	lookupTimeSig:mean 	2.5833333333333
scalar Network.dyn_peer[939] 	lookupStabilitySig:mean 	0.84347745783937
scalar Network.dyn_peer[939] 	lookupHopsSig:mean 	25
scalar Network.dyn_peer[940] 	lookupTimeSig:mean 	2.64
scalar Network.dyn_peer[940] 	lookupStabilitySig:mean 	0.91570543777198
scalar Network.dyn_peer[940] 	lookupHopsSig:mean 	25.6
scalar Network.dyn_peer[941] 	lookupTimeSig:mean 	2.2555555555556
scalar Network.dyn_peer[941] 	lookupStabilitySig:mean 	0.94953733827505
scalar Network.dyn_peer[941] 	lookupHopsSig:mean 	21.666666666667
scalar Network.dyn_peer[942] 	lookupTimeSig:mean 	1.75
scalar Network.dyn_peer[942] 	lookupStabilitySig:mean 	0.67877849843353
scalar Network.dyn_peer[942] 	lookupHopsSig:mean 	16.75
scalar Network.dyn_peer[943] 	lookupTimeSig:mean 	2.16
scalar Network.dyn_peer[943] 	lookupStabilitySig:mean 	0.93263798952103
scalar Network.dyn_peer[943] 	lookupHopsSig:mean 	20.7
scalar Network.dyn_peer[944] 	lookupTimeSig:mean 	1.92
scalar Network.dyn_peer[944] 	lookupStabilitySig:mean 	0.81810486763716
scalar Network.dyn_peer[944] 	lookupHopsSig:mean 	18.4
scalar Network.dyn_peer[945] 	lookupTimeSig:mean 	4.25
scalar Network.dyn_peer[945] 	lookupStabilitySig:mean 	0.80997354909778
scalar Network.dyn_peer[945] 	lookupHopsSig:mean 	42
scalar Network.dyn_peer[946] 	lookupTimeSig:mean 	2.825
scalar Network.dyn_peer[946] 	lookupStabilitySig:mean 	0.90841999033
scalar Network.dyn_peer[946] 	lookupHopsSig:mean 	27.5
scalar Network.dyn_peer[947] 	lookupTimeSig:mean 	0.775
scalar Network.dyn_peer[947] 	lookupStabilitySig:mean 	0.60775462538004
scalar Network.dyn_peer[947] 	lookupHopsSig:mean 	7
scalar Network.dyn_peer[948] 	lookupTimeSig:mean 	1.7272727272727
scalar Network.dyn_peer[948] 	lookupStabilitySig:mean 	0.9538964278234
scalar Network.dyn_peer[948] 	lookupHopsSig:mean 	16.363636363636
scalar Network.dyn_peer[949] 	lookupTimeSig:mean 	1.3
scalar Network.dyn_peer[949] 	lookupStabilitySig:mean 	0.92649817874189
scalar Network.dyn_peer[949] 	lookupHopsSig:mean 	12.125
scalar Network.dyn_peer[950] 	lookupTimeSig:mean 	1.9384615384615
scalar Network.dyn_peer[950] 	lookupStabilitySig:mean 	0.97178441586976
scalar Network.dyn_peer[950] 	lookupHopsSig:mean 	18.461538461538
scalar Network.dyn_peer[951] 	lookupTimeSig:mean 	2.16
scalar Network.dyn_peer[951] 	lookupStabilitySig:mean 	0.7005351152271
scalar Network.dyn_peer[951] 	lookupHopsSig:mean 	20.8
scalar Network.dyn_peer[952] 	lookupTimeSig:mean 	2.4
scalar Network.dyn_peer[952] 	lookupStabilitySig:mean 	0.86786289000884
scalar Network.dyn_peer[952] 	lookupHopsSig:mean 	23.25
scalar Network.dyn_peer[953] 	lookupTimeSig:mean 	3.15
scalar Network.dyn_peer[953] 	lookupStabilitySig:mean 	0.88382424879819
scalar Network.dyn_peer[953] 	lookupHopsSig:mean 	30.75
scalar Network.dyn_peer[954] 	lookupTimeSig:mean 	1.25
scalar Network.dyn_peer[954] 	lookupStabilitySig:mean 	0.8101794992884
scalar Network.dyn_peer[954] 	lookupHopsSig:mean 	11.666666666667
scalar Network.dyn_peer[955] 	lookupTimeSig:mean 	1.6833333333333
scalar Network.dyn_peer[955] 	lookupStabilitySig:mean 	0.77404892910272
scalar Network.dyn_peer[955] 	lookupHopsSig:mean 	16
scalar Network.dyn_peer[956] 	lookupTimeSig:mean 	3.7
scalar Network.dyn_peer[956] 	lookupStabilitySig:mean 	0.89728976537784
scalar Network.dyn_peer[956] 	lookupHopsSig:mean 	36.333333333333
scalar Network.dyn_peer[957] 	lookupTimeSig:mean 	2.3833333333333
scalar Network.dyn_peer[957] 	lookupStabilitySig:mean 	0.94931902061217
scalar Network.dyn_peer[957] 	lookupHopsSig:mean 	23
scalar Network.dyn_peer[958] 	lookupTimeSig:mean 	1.9
scalar Network.dyn_peer[958] 	lookupStabilitySig:mean 	0.92792509802218
scalar Network.dyn_peer[958] 	lookupHopsSig:mean 	18.142857142857
scalar Network.dyn_peer[959] 	lookupTimeSig:mean 	1.26
scalar Network.dyn_peer[959] 	lookupStabilitySig:mean 	0.73119960576296
scalar Network.dyn_peer[959] 	lookupHopsSig:mean 	11.8
scalar Network.dyn_peer[960] 	lookupTimeSig:mean 	1.4833333333333
scalar Network.dyn_peer[960] 	lookupStabilitySig:mean 	0.91771685145795
scalar Network.dyn_peer[960] 	lookupHopsSig:mean 	13.916666666667
scalar Network.dyn_peer[961] 	lookupTimeSig:mean 	2.38
scalar Network.dyn_peer[961] 	lookupStabilitySig:mean 	0.84638921171427
scalar Network.dyn_peer[961] 	lookupHopsSig:mean 	23
scalar Network.dyn_peer[962] 	lookupTimeSig:mean 	1.775
scalar Network.dyn_peer[962] 	lookupStabilitySig:mean 	0.93698035157286
scalar Network.dyn_peer[962] 	lookupHopsSig:mean 	16.875
scalar Network.dyn_peer[963] 	lookupTimeSig:mean 	1.64
scalar Network.dyn_peer[963] 	lookupStabilitySig:mean 	0.83150308057666
scalar Network.dyn_peer[963] 	lookupHopsSig:mean 	15.5
scalar Network.dyn_peer[964] 	lookupTimeSig:mean 	1.8666666666667
scalar Network.dyn_peer[964] 	lookupStabilitySig:mean 	0.70207741608222
scalar Network.dyn_peer[964] 	lookupHopsSig:mean 	18
scalar Network.dyn_peer[965] 	lookupTimeSig:mean 	1.4222222222222
scalar Network.dyn_peer[965] 	lookupStabilitySig:mean 	0.8052922450006
scalar Network.dyn_peer[965] 	lookupHopsSig:mean 	13.333333333333
scalar Network.dyn_peer[966] 	lookupTimeSig:mean 	1.9857142857143
scalar Network.dyn_peer[966] 	lookupStabilitySig:mean 	0.82842344351645
scalar Network.dyn_peer[966] 	lookupHopsSig:mean 	19
scalar Network.dyn_peer[967] 	lookupTimeSig:mean 	2.9285714285714
scalar Network.dyn_peer[967] 	lookupStabilitySig:mean 	0.95318932511977
scalar Network.dyn_peer[967] 	lookupHopsSig:mean 	28.428571428571
scalar Network.dyn_peer[968] 	lookupTimeSig:mean 	2.4142857142857
scalar Network.dyn_peer[968] 	lookupStabilitySig:mean 	0.94676863109427
scalar Network.dyn_peer[968] 	lookupHopsSig:mean 	23.285714285714
scalar Network.dyn_peer[969] 	lookupTimeSig:mean 	2.05
scalar Network.dyn_peer[969] 	lookupStabilitySig:mean 	0.82801271354159
scalar Network.dyn_peer[969] 	lookupHopsSig:mean 	19.666666666667
scalar Network.dyn_peer[970] 	lookupTimeSig:mean 	1.6714285714286
scalar Network.dyn_peer[970] 	lookupStabilitySig:mean 	0.80755235095109
scalar Network.dyn_peer[970] 	lookupHopsSig:mean 	15.857142857143
scalar Network.dyn_peer[971] 	lookupTimeSig:mean 	3.0166666666667
scalar Network.dyn_peer[971] 	lookupStabilitySig:mean 	0.93062337534502
scalar Network.dyn_peer[971] 	lookupHopsSig:mean 	29.333333333333
scalar Network.dyn_peer[972] 	lookupTimeSig:mean 	2.7333333333333
scalar Network.dyn_peer[972] 	lookupStabilitySig:mean 	0.92108781728894
scalar Network.dyn_peer[972] 	lookupHopsSig:mean 	26.5
scalar Network.dyn_peer[973] 	lookupTimeSig:mean 	2
scalar Network.dyn_peer[973] 	lookupStabilitySig:mean 	0.44089834392071
scalar Network.dyn_peer[973] 	lookupHopsSig:mean 	19.5
scalar Network.dyn_peer[974] 	lookupTimeSig:mean 	2.32
scalar Network.dyn_peer[974] 	lookupStabilitySig:mean 	0.90313360393047
scalar Network.dyn_peer[974] 	lookupHopsSig:mean 	22.4
scalar Network.dyn_peer[975] 	lookupTimeSig:mean 	2.3333333333333
scalar Network.dyn_peer[975] 	lookupStabilitySig:mean 	0.75346855074167
scalar Network.dyn_peer[975] 	lookupHopsSig:mean 	22.666666666667
scalar Network.dyn_peer[976] 	lookupTimeSig:mean 	2.1571428571429
scalar Network.dyn_peer[976] 	lookupStabilitySig:mean 	0.96520237042569
scalar Network.dyn_peer[976] 	lookupHopsSig:mean 	20.642857142857
scalar Network.dyn_peer[977] 	lookupTimeSig:mean 	2.18
scalar Network.dyn_peer[977] 	lookupStabilitySig:mean 	0.80779426842928
scalar Network.dyn_peer[977] 	lookupHopsSig:mean 	21
scalar Network.dyn_peer[978] 	lookupTimeSig:mean 	2.5333333333333
scalar Network.dyn_peer[978] 	lookupStabilitySig:mean 	0.53377760450045
scalar Network.dyn_peer[978] 	lookupHopsSig:mean 	24.666666666667
scalar Network.dyn_peer[979] 	lookupTimeSig:mean 	1.2
scalar Network.dyn_peer[979] 	lookupStabilitySig:mean 	0.49740739166737
scalar Network.dyn_peer[979] 	lookupHopsSig:mean 	11.333333333333
scalar Network.dyn_peer[980] 	lookupTimeSig:mean 	2.2428571428571
scalar Network.dyn_peer[980] 	lookupStabilitySig:mean 	0.86894492991269
scalar Network.dyn_peer[980] 	lookupHopsSig:mean 	21.571428571429
scalar Network.dyn_peer[981] 	lookupTimeSig:mean 	0.93333333333333
scalar Network.dyn_peer[981] 	lookupStabilitySig:mean 	0.63482906545202
scalar Network.dyn_peer[981] 	lookupHopsSig:mean 	8.6666666666667
scalar Network.dyn_peer[982] 	lookupTimeSig:mean 	2.0714285714286
scalar Network.dyn_peer[982] 	lookupStabilitySig:mean 	0.93817306615944
scalar Network.dyn_peer[982] 	lookupHopsSig:mean 	19.857142857143
scalar Network.dyn_peer[983] 	lookupTimeSig:mean 	5.3
scalar Network.dyn_peer[983] 	lookupStabilitySig:mean 	0.91251768327008
scalar Network.dyn_peer[983] 	lookupHopsSig:mean 	52.333333333333
scalar Network.dyn_peer[984] 	lookupTimeSig:mean 	1.6833333333333
scalar Network.dyn_peer[984] 	lookupStabilitySig:mean 	0.90196388649444
scalar Network.dyn_peer[984] 	lookupHopsSig:mean 	16
scalar Network.dyn_peer[985] 	lookupTimeSig:mean 	1.95
scalar Network.dyn_peer[985] 	lookupStabilitySig:mean 	0.7978106085211
scalar Network.dyn_peer[985] 	lookupHopsSig:mean 	18.75
scalar Network.dyn_peer[986] 	lookupTimeSig:mean 	2.2
scalar Network.dyn_peer[986] 	lookupStabilitySig:mean 	0.92779695956657
scalar Network.dyn_peer[986] 	lookupHopsSig:mean 	21.166666666667
scalar Network.dyn_peer[987] 	lookupTimeSig:mean 	1.8142857142857
scalar Network.dyn_peer[987] 	lookupStabilitySig:mean 	0.95487144461367
scalar Network.dyn_peer[987] 	lookupHopsSig:mean 	17.285714285714
scalar Network.dyn_peer[988] 	lookupTimeSig:mean 	1.8
scalar Network.dyn_peer[988] 	lookupStabilitySig:mean 	0.89584754469494
scalar Network.dyn_peer[988] 	lookupHopsSig:mean 	17.111111111111
scalar Network.dyn_peer[989] 	lookupTimeSig:mean 	1.35
scalar Network.dyn_peer[989] 	lookupStabilitySig:mean 	0.55297156795859
scalar Network.dyn_peer[989] 	lookupHopsSig:mean 	13
scalar Network.dyn_peer[990] 	lookupTimeSig:mean 	1.1
scalar Network.dyn_peer[990] 	lookupStabilitySig:mean 	0.6498439302668
scalar Network.dyn_peer[990] 	lookupHopsSig:mean 	10.25
scalar Network.dyn_peer[991] 	lookupTimeSig:mean 	1.9
scalar Network.dyn_peer[991] 	lookupStabilitySig:mean 	0.91842811311492
scalar Network.dyn_peer[991] 	lookupHopsSig:mean 	18.111111111111
scalar Network.dyn_peer[992] 	lookupTimeSig:mean 	1.675
scalar Network.dyn_peer[992] 	lookupStabilitySig:mean 	0.91169174388051
scalar Network.dyn_peer[992] 	lookupHopsSig:mean 	15.875
scalar Network.dyn_peer[993] 	lookupTimeSig:mean 	1.6142857142857
scalar Network.dyn_peer[993] 	lookupStabilitySig:mean 	0.8965993481023
scalar Network.dyn_peer[993] 	lookupHopsSig:mean 	15.285714285714
scalar Network.dyn_peer[994] 	lookupTimeSig:mean 	2.5166666666667
scalar Network.dyn_peer[994] 	lookupStabilitySig:mean 	0.8166979510958
scalar Network.dyn_peer[994] 	lookupHopsSig:mean 	24.333333333333
scalar Network.dyn_peer[995] 	lookupTimeSig:mean 	1.74
scalar Network.dyn_peer[995] 	lookupStabilitySig:mean 	0.83282621540129
scalar Network.dyn_peer[995] 	lookupHopsSig:mean 	16.6
scalar Network.dyn_peer[996] 	lookupTimeSig:mean 	1.2230769230769
scalar Network.dyn_peer[996] 	lookupStabilitySig:mean 	0.89173034600054
scalar Network.dyn_peer[996] 	lookupHopsSig:mean 	11.307692307692
scalar Network.dyn_peer[997] 	lookupTimeSig:mean 	1.26
scalar Network.dyn_peer[997] 	lookupStabilitySig:mean 	0.73349019922316
scalar Network.dyn_peer[997] 	lookupHopsSig:mean 	11.8
scalar Network.dyn_peer[998] 	lookupTimeSig:mean 	2.45
scalar Network.dyn_peer[998] 	lookupStabilitySig:mean 	0.95886738831177
scalar Network.dyn_peer[998] 	lookupHopsSig:mean 	23.6
scalar Network.dyn_peer[999] 	lookupTimeSig:mean 	2.8888888888889
scalar Network.dyn_peer[999] 	lookupStabilitySig:mean 	0.95032203187131
scalar Network.dyn_peer[999] 	lookupHopsSig:mean 	28
scalar Network.churner 	inGoingSizeSig:mean 	499.000999001
