version 2
run Stability2-307-20130526-00:54:39-26640
attr configname Stability2
attr datetime 20130526-00:54:39
attr experiment Stability2
attr inifile omnetpp.ini
attr iterationvars $0=1000
attr iterationvars2 "$0=1000, $repetition=7"
attr measurement $0=1000
attr network Network
attr processid 26640
attr repetition 7
attr replication #7
attr resultdir results
attr runnumber 307
attr seedset 307

scalar Network.dyn_peer[0] 	lookupTimeSig:mean 	1.3
scalar Network.dyn_peer[0] 	lookupStabilitySig:mean 	0.64652906482418
scalar Network.dyn_peer[0] 	lookupHopsSig:mean 	12.166666666667
scalar Network.dyn_peer[1] 	lookupTimeSig:mean 	1.7375
scalar Network.dyn_peer[1] 	lookupStabilitySig:mean 	0.84847710910253
scalar Network.dyn_peer[1] 	lookupHopsSig:mean 	16.5
scalar Network.dyn_peer[2] 	lookupTimeSig:mean 	0.65
scalar Network.dyn_peer[2] 	lookupStabilitySig:mean 	0.66948132752441
scalar Network.dyn_peer[2] 	lookupHopsSig:mean 	5.625
scalar Network.dyn_peer[3] 	lookupTimeSig:mean 	3.1
scalar Network.dyn_peer[3] 	lookupStabilitySig:mean 	0.24285711348057
scalar Network.dyn_peer[3] 	lookupHopsSig:mean 	30.5
scalar Network.dyn_peer[4] 	lookupTimeSig:mean 	1.575
scalar Network.dyn_peer[4] 	lookupStabilitySig:mean 	0.70416647195816
scalar Network.dyn_peer[4] 	lookupHopsSig:mean 	15
scalar Network.dyn_peer[5] 	lookupTimeSig:mean 	3.8666666666667
scalar Network.dyn_peer[5] 	lookupStabilitySig:mean 	0.79018212109804
scalar Network.dyn_peer[5] 	lookupHopsSig:mean 	38
scalar Network.dyn_peer[6] 	lookupTimeSig:mean 	2
scalar Network.dyn_peer[6] 	lookupStabilitySig:mean 	0.70872028251844
scalar Network.dyn_peer[6] 	lookupHopsSig:mean 	19.142857142857
scalar Network.dyn_peer[7] 	lookupTimeSig:mean 	1.4375
scalar Network.dyn_peer[7] 	lookupStabilitySig:mean 	0.76023738377262
scalar Network.dyn_peer[7] 	lookupHopsSig:mean 	13.5
scalar Network.dyn_peer[8] 	lookupTimeSig:mean 	1.9
scalar Network.dyn_peer[8] 	lookupStabilitySig:mean 	0.75669272057712
scalar Network.dyn_peer[8] 	lookupHopsSig:mean 	18.25
scalar Network.dyn_peer[9] 	lookupTimeSig:mean 	1.675
scalar Network.dyn_peer[9] 	lookupStabilitySig:mean 	0.46155462041497
scalar Network.dyn_peer[9] 	lookupHopsSig:mean 	16
scalar Network.dyn_peer[10] 	lookupTimeSig:mean 	2.58
scalar Network.dyn_peer[10] 	lookupStabilitySig:mean 	0.59798172339797
scalar Network.dyn_peer[10] 	lookupHopsSig:mean 	25
scalar Network.dyn_peer[11] 	lookupTimeSig:mean 	1.0333333333333
scalar Network.dyn_peer[11] 	lookupStabilitySig:mean 	0.61578629724681
scalar Network.dyn_peer[11] 	lookupHopsSig:mean 	9.5
scalar Network.dyn_peer[12] 	lookupTimeSig:mean 	2.05
scalar Network.dyn_peer[12] 	lookupStabilitySig:mean 	0.69004233065061
scalar Network.dyn_peer[12] 	lookupHopsSig:mean 	19.625
scalar Network.dyn_peer[13] 	lookupTimeSig:mean 	3.9
scalar Network.dyn_peer[13] 	lookupStabilitySig:mean 	0.5346884354949
scalar Network.dyn_peer[13] 	lookupHopsSig:mean 	38.5
scalar Network.dyn_peer[14] 	lookupTimeSig:mean 	1.56
scalar Network.dyn_peer[14] 	lookupStabilitySig:mean 	0.56049330681562
scalar Network.dyn_peer[14] 	lookupHopsSig:mean 	14.8
scalar Network.dyn_peer[15] 	lookupTimeSig:mean 	1.2777777777778
scalar Network.dyn_peer[15] 	lookupStabilitySig:mean 	0.82811689762295
scalar Network.dyn_peer[15] 	lookupHopsSig:mean 	11.888888888889
scalar Network.dyn_peer[16] 	lookupTimeSig:mean 	1.7333333333333
scalar Network.dyn_peer[16] 	lookupStabilitySig:mean 	0.68440106138587
scalar Network.dyn_peer[16] 	lookupHopsSig:mean 	16.5
scalar Network.dyn_peer[17] 	lookupTimeSig:mean 	2.35
scalar Network.dyn_peer[17] 	lookupStabilitySig:mean 	0.63188252784312
scalar Network.dyn_peer[17] 	lookupHopsSig:mean 	22.666666666667
scalar Network.dyn_peer[18] 	lookupTimeSig:mean 	1.525
scalar Network.dyn_peer[18] 	lookupStabilitySig:mean 	0.67327929846942
scalar Network.dyn_peer[18] 	lookupHopsSig:mean 	14.5
scalar Network.dyn_peer[19] 	lookupTimeSig:mean 	1.425
scalar Network.dyn_peer[19] 	lookupStabilitySig:mean 	0.75439477385953
scalar Network.dyn_peer[19] 	lookupHopsSig:mean 	13.375
scalar Network.dyn_peer[20] 	lookupTimeSig:mean 	2.05
scalar Network.dyn_peer[20] 	lookupStabilitySig:mean 	0.6341041745618
scalar Network.dyn_peer[20] 	lookupHopsSig:mean 	19.75
scalar Network.dyn_peer[21] 	lookupTimeSig:mean 	2.08
scalar Network.dyn_peer[21] 	lookupStabilitySig:mean 	0.61883552074432
scalar Network.dyn_peer[21] 	lookupHopsSig:mean 	20
scalar Network.dyn_peer[22] 	lookupTimeSig:mean 	1.6571428571429
scalar Network.dyn_peer[22] 	lookupStabilitySig:mean 	0.80199666081795
scalar Network.dyn_peer[22] 	lookupHopsSig:mean 	15.714285714286
scalar Network.dyn_peer[23] 	lookupTimeSig:mean 	2.36
scalar Network.dyn_peer[23] 	lookupStabilitySig:mean 	0.81374667305499
scalar Network.dyn_peer[23] 	lookupHopsSig:mean 	22.8
scalar Network.dyn_peer[24] 	lookupTimeSig:mean 	1.9
scalar Network.dyn_peer[24] 	lookupStabilitySig:mean 	0.40047210951646
scalar Network.dyn_peer[24] 	lookupHopsSig:mean 	18.333333333333
scalar Network.dyn_peer[25] 	lookupTimeSig:mean 	1.12
scalar Network.dyn_peer[25] 	lookupStabilitySig:mean 	0.5297637924552
scalar Network.dyn_peer[25] 	lookupHopsSig:mean 	10.4
scalar Network.dyn_peer[26] 	lookupTimeSig:mean 	2.16
scalar Network.dyn_peer[26] 	lookupStabilitySig:mean 	0.83123179227114
scalar Network.dyn_peer[26] 	lookupHopsSig:mean 	20.8
scalar Network.dyn_peer[27] 	lookupTimeSig:mean 	1.98
scalar Network.dyn_peer[27] 	lookupStabilitySig:mean 	0.56636502295732
scalar Network.dyn_peer[27] 	lookupHopsSig:mean 	19
scalar Network.dyn_peer[28] 	lookupTimeSig:mean 	1.9666666666667
scalar Network.dyn_peer[28] 	lookupStabilitySig:mean 	0.6505888318643
scalar Network.dyn_peer[28] 	lookupHopsSig:mean 	18.833333333333
scalar Network.dyn_peer[29] 	lookupTimeSig:mean 	1.7125
scalar Network.dyn_peer[29] 	lookupStabilitySig:mean 	0.81536449154373
scalar Network.dyn_peer[29] 	lookupHopsSig:mean 	16.25
scalar Network.dyn_peer[30] 	lookupTimeSig:mean 	2.84
scalar Network.dyn_peer[30] 	lookupStabilitySig:mean 	0.78466583751142
scalar Network.dyn_peer[30] 	lookupHopsSig:mean 	27.6
scalar Network.dyn_peer[31] 	lookupTimeSig:mean 	1.525
scalar Network.dyn_peer[31] 	lookupStabilitySig:mean 	0.81959947245196
scalar Network.dyn_peer[31] 	lookupHopsSig:mean 	14.333333333333
scalar Network.dyn_peer[32] 	lookupTimeSig:mean 	2.7142857142857
scalar Network.dyn_peer[32] 	lookupStabilitySig:mean 	0.93065714523462
scalar Network.dyn_peer[32] 	lookupHopsSig:mean 	26.285714285714
scalar Network.dyn_peer[33] 	lookupTimeSig:mean 	3.7
scalar Network.dyn_peer[33] 	lookupStabilitySig:mean 	0.65742971003056
scalar Network.dyn_peer[33] 	lookupHopsSig:mean 	36.5
scalar Network.dyn_peer[34] 	lookupTimeSig:mean 	1.9333333333333
scalar Network.dyn_peer[34] 	lookupStabilitySig:mean 	0.38823527594407
scalar Network.dyn_peer[34] 	lookupHopsSig:mean 	18.666666666667
scalar Network.dyn_peer[35] 	lookupTimeSig:mean 	1.4333333333333
scalar Network.dyn_peer[35] 	lookupStabilitySig:mean 	0.19437228143215
scalar Network.dyn_peer[35] 	lookupHopsSig:mean 	13.666666666667
scalar Network.dyn_peer[36] 	lookupTimeSig:mean 	1.3
scalar Network.dyn_peer[36] 	lookupStabilitySig:mean 	0.7360220849514
scalar Network.dyn_peer[36] 	lookupHopsSig:mean 	12.166666666667
scalar Network.dyn_peer[37] 	lookupTimeSig:mean 	1.7428571428571
scalar Network.dyn_peer[37] 	lookupStabilitySig:mean 	0.86483065248467
scalar Network.dyn_peer[37] 	lookupHopsSig:mean 	16.571428571429
scalar Network.dyn_peer[38] 	lookupTimeSig:mean 	2.06
scalar Network.dyn_peer[38] 	lookupStabilitySig:mean 	0.56573192365468
scalar Network.dyn_peer[38] 	lookupHopsSig:mean 	19.8
scalar Network.dyn_peer[39] 	lookupTimeSig:mean 	1.9
scalar Network.dyn_peer[39] 	lookupStabilitySig:mean 	0.60984892398119
scalar Network.dyn_peer[39] 	lookupHopsSig:mean 	18.2
scalar Network.dyn_peer[40] 	lookupTimeSig:mean 	1.65
scalar Network.dyn_peer[40] 	lookupStabilitySig:mean 	0.62235945339004
scalar Network.dyn_peer[40] 	lookupHopsSig:mean 	15.666666666667
scalar Network.dyn_peer[41] 	lookupTimeSig:mean 	1.52
scalar Network.dyn_peer[41] 	lookupStabilitySig:mean 	0.84340319854673
scalar Network.dyn_peer[41] 	lookupHopsSig:mean 	14.3
scalar Network.dyn_peer[42] 	lookupTimeSig:mean 	1.94
scalar Network.dyn_peer[42] 	lookupStabilitySig:mean 	0.58435529470444
scalar Network.dyn_peer[42] 	lookupHopsSig:mean 	18.6
scalar Network.dyn_peer[43] 	lookupTimeSig:mean 	1.7666666666667
scalar Network.dyn_peer[43] 	lookupStabilitySig:mean 	0.86290238363047
scalar Network.dyn_peer[43] 	lookupHopsSig:mean 	16.833333333333
scalar Network.dyn_peer[44] 	lookupTimeSig:mean 	1.7
scalar Network.dyn_peer[44] 	lookupStabilitySig:mean 	0.74693486057222
scalar Network.dyn_peer[44] 	lookupHopsSig:mean 	16.2
scalar Network.dyn_peer[45] 	lookupTimeSig:mean 	2.025
scalar Network.dyn_peer[45] 	lookupStabilitySig:mean 	0.6846382804215
scalar Network.dyn_peer[45] 	lookupHopsSig:mean 	19.5
scalar Network.dyn_peer[46] 	lookupTimeSig:mean 	2.0333333333333
scalar Network.dyn_peer[46] 	lookupStabilitySig:mean 	0.73823870904744
scalar Network.dyn_peer[46] 	lookupHopsSig:mean 	19.5
scalar Network.dyn_peer[47] 	lookupTimeSig:mean 	3.7666666666667
scalar Network.dyn_peer[47] 	lookupStabilitySig:mean 	0.42017439752817
scalar Network.dyn_peer[47] 	lookupHopsSig:mean 	37
scalar Network.dyn_peer[48] 	lookupTimeSig:mean 	1.29
scalar Network.dyn_peer[48] 	lookupStabilitySig:mean 	0.76354481093585
scalar Network.dyn_peer[48] 	lookupHopsSig:mean 	12
scalar Network.dyn_peer[49] 	lookupTimeSig:mean 	1.5
scalar Network.dyn_peer[49] 	lookupStabilitySig:mean 	0.71199594414793
scalar Network.dyn_peer[49] 	lookupHopsSig:mean 	14.1
scalar Network.dyn_peer[50] 	lookupTimeSig:mean 	2.9666666666667
scalar Network.dyn_peer[50] 	lookupStabilitySig:mean 	0.75864697309832
scalar Network.dyn_peer[50] 	lookupHopsSig:mean 	29
scalar Network.dyn_peer[51] 	lookupTimeSig:mean 	2.62
scalar Network.dyn_peer[51] 	lookupStabilitySig:mean 	0.56139921564609
scalar Network.dyn_peer[51] 	lookupHopsSig:mean 	25.4
scalar Network.dyn_peer[52] 	lookupTimeSig:mean 	1.2846153846154
scalar Network.dyn_peer[52] 	lookupStabilitySig:mean 	0.84265371100404
scalar Network.dyn_peer[52] 	lookupHopsSig:mean 	11.923076923077
scalar Network.dyn_peer[53] 	lookupTimeSig:mean 	1.8375
scalar Network.dyn_peer[53] 	lookupStabilitySig:mean 	0.92137264600024
scalar Network.dyn_peer[53] 	lookupHopsSig:mean 	17.5
scalar Network.dyn_peer[54] 	lookupTimeSig:mean 	2.6
scalar Network.dyn_peer[54] 	lookupStabilitySig:mean 	0.65961539000273
scalar Network.dyn_peer[54] 	lookupHopsSig:mean 	25.5
scalar Network.dyn_peer[55] 	lookupTimeSig:mean 	1.2428571428571
scalar Network.dyn_peer[55] 	lookupStabilitySig:mean 	0.78011353473578
scalar Network.dyn_peer[55] 	lookupHopsSig:mean 	11.571428571429
scalar Network.dyn_peer[56] 	lookupTimeSig:mean 	2.1
scalar Network.dyn_peer[56] 	lookupStabilitySig:mean 	0.54212499503046
scalar Network.dyn_peer[56] 	lookupHopsSig:mean 	20.25
scalar Network.dyn_peer[57] 	lookupTimeSig:mean 	2.5666666666667
scalar Network.dyn_peer[57] 	lookupStabilitySig:mean 	0.39530811707179
scalar Network.dyn_peer[57] 	lookupHopsSig:mean 	25
scalar Network.dyn_peer[58] 	lookupTimeSig:mean 	1.7833333333333
scalar Network.dyn_peer[58] 	lookupStabilitySig:mean 	0.75490403175354
scalar Network.dyn_peer[58] 	lookupHopsSig:mean 	17
scalar Network.dyn_peer[59] 	lookupTimeSig:mean 	2.1142857142857
scalar Network.dyn_peer[59] 	lookupStabilitySig:mean 	0.84741213332329
scalar Network.dyn_peer[59] 	lookupHopsSig:mean 	20.285714285714
scalar Network.dyn_peer[60] 	lookupTimeSig:mean 	1.6333333333333
scalar Network.dyn_peer[60] 	lookupStabilitySig:mean 	0.86659994969765
scalar Network.dyn_peer[60] 	lookupHopsSig:mean 	15.444444444444
scalar Network.dyn_peer[61] 	lookupTimeSig:mean 	4.5
scalar Network.dyn_peer[61] 	lookupStabilitySig:mean 	0.55779275794824
scalar Network.dyn_peer[61] 	lookupHopsSig:mean 	44.333333333333
scalar Network.dyn_peer[62] 	lookupTimeSig:mean 	2.02
scalar Network.dyn_peer[62] 	lookupStabilitySig:mean 	0.77345173619688
scalar Network.dyn_peer[62] 	lookupHopsSig:mean 	19.4
scalar Network.dyn_peer[63] 	lookupTimeSig:mean 	2.1
scalar Network.dyn_peer[63] 	lookupStabilitySig:mean 	0.33188405632973
scalar Network.dyn_peer[63] 	lookupHopsSig:mean 	20.5
scalar Network.dyn_peer[64] 	lookupTimeSig:mean 	1.3857142857143
scalar Network.dyn_peer[64] 	lookupStabilitySig:mean 	0.7213574274044
scalar Network.dyn_peer[64] 	lookupHopsSig:mean 	13
scalar Network.dyn_peer[65] 	lookupTimeSig:mean 	1.3
scalar Network.dyn_peer[65] 	lookupStabilitySig:mean 	0.71331902810683
scalar Network.dyn_peer[65] 	lookupHopsSig:mean 	12.111111111111
scalar Network.dyn_peer[66] 	lookupTimeSig:mean 	1.9777777777778
scalar Network.dyn_peer[66] 	lookupStabilitySig:mean 	0.80650124673007
scalar Network.dyn_peer[66] 	lookupHopsSig:mean 	18.888888888889
scalar Network.dyn_peer[67] 	lookupTimeSig:mean 	1.5083333333333
scalar Network.dyn_peer[67] 	lookupStabilitySig:mean 	0.8790756885428
scalar Network.dyn_peer[67] 	lookupHopsSig:mean 	14.166666666667
scalar Network.dyn_peer[68] 	lookupTimeSig:mean 	1.3875
scalar Network.dyn_peer[68] 	lookupStabilitySig:mean 	0.72226638766006
scalar Network.dyn_peer[68] 	lookupHopsSig:mean 	13
scalar Network.dyn_peer[69] 	lookupTimeSig:mean 	1.3
scalar Network.dyn_peer[69] 	lookupStabilitySig:mean 	0.45566447327534
scalar Network.dyn_peer[69] 	lookupHopsSig:mean 	12.333333333333
scalar Network.dyn_peer[70] 	lookupTimeSig:mean 	0.85
scalar Network.dyn_peer[70] 	lookupStabilitySig:mean 	0.48023254796863
scalar Network.dyn_peer[70] 	lookupHopsSig:mean 	7.75
scalar Network.dyn_peer[71] 	lookupTimeSig:mean 	2.1285714285714
scalar Network.dyn_peer[71] 	lookupStabilitySig:mean 	0.93957588914782
scalar Network.dyn_peer[71] 	lookupHopsSig:mean 	20.428571428571
scalar Network.dyn_peer[72] 	lookupTimeSig:mean 	2.4
scalar Network.dyn_peer[72] 	lookupStabilitySig:mean 	0.43698828915755
scalar Network.dyn_peer[72] 	lookupHopsSig:mean 	23.333333333333
scalar Network.dyn_peer[73] 	lookupTimeSig:mean 	2.25
scalar Network.dyn_peer[73] 	lookupStabilitySig:mean 	0.60874068411067
scalar Network.dyn_peer[73] 	lookupHopsSig:mean 	21.75
scalar Network.dyn_peer[74] 	lookupTimeSig:mean 	1.5888888888889
scalar Network.dyn_peer[74] 	lookupStabilitySig:mean 	0.929460397624
scalar Network.dyn_peer[74] 	lookupHopsSig:mean 	14.944444444444
scalar Network.dyn_peer[75] 	lookupTimeSig:mean 	3.06
scalar Network.dyn_peer[75] 	lookupStabilitySig:mean 	0.93383878916502
scalar Network.dyn_peer[75] 	lookupHopsSig:mean 	29.8
scalar Network.dyn_peer[76] 	lookupTimeSig:mean 	1.4
scalar Network.dyn_peer[76] 	lookupStabilitySig:mean 	0.8157407278195
scalar Network.dyn_peer[76] 	lookupHopsSig:mean 	13.125
scalar Network.dyn_peer[77] 	lookupTimeSig:mean 	1.9
scalar Network.dyn_peer[77] 	lookupStabilitySig:mean 	0.66304162450667
scalar Network.dyn_peer[77] 	lookupHopsSig:mean 	18.142857142857
scalar Network.dyn_peer[78] 	lookupTimeSig:mean 	2.16
scalar Network.dyn_peer[78] 	lookupStabilitySig:mean 	0.55765729099512
scalar Network.dyn_peer[78] 	lookupHopsSig:mean 	20.8
scalar Network.dyn_peer[79] 	lookupTimeSig:mean 	1.5666666666667
scalar Network.dyn_peer[79] 	lookupStabilitySig:mean 	0.6846441924572
scalar Network.dyn_peer[79] 	lookupHopsSig:mean 	15
scalar Network.dyn_peer[80] 	lookupTimeSig:mean 	1.7833333333333
scalar Network.dyn_peer[80] 	lookupStabilitySig:mean 	0.66556073042254
scalar Network.dyn_peer[80] 	lookupHopsSig:mean 	17
scalar Network.dyn_peer[81] 	lookupTimeSig:mean 	1.0375
scalar Network.dyn_peer[81] 	lookupStabilitySig:mean 	0.67146698758006
scalar Network.dyn_peer[81] 	lookupHopsSig:mean 	9.5
scalar Network.dyn_peer[82] 	lookupTimeSig:mean 	1.7214285714286
scalar Network.dyn_peer[82] 	lookupStabilitySig:mean 	0.94576684751415
scalar Network.dyn_peer[82] 	lookupHopsSig:mean 	16.285714285714
scalar Network.dyn_peer[83] 	lookupTimeSig:mean 	1.2666666666667
scalar Network.dyn_peer[83] 	lookupStabilitySig:mean 	0.64688123948872
scalar Network.dyn_peer[83] 	lookupHopsSig:mean 	11.833333333333
scalar Network.dyn_peer[84] 	lookupTimeSig:mean 	1.7615384615385
scalar Network.dyn_peer[84] 	lookupStabilitySig:mean 	0.9008196398186
scalar Network.dyn_peer[84] 	lookupHopsSig:mean 	16.692307692308
scalar Network.dyn_peer[85] 	lookupTimeSig:mean 	1.62
scalar Network.dyn_peer[85] 	lookupStabilitySig:mean 	0.64502322226763
scalar Network.dyn_peer[85] 	lookupHopsSig:mean 	15.4
scalar Network.dyn_peer[86] 	lookupTimeSig:mean 	0.625
scalar Network.dyn_peer[86] 	lookupStabilitySig:mean 	0.4473443236202
scalar Network.dyn_peer[86] 	lookupHopsSig:mean 	5.5
scalar Network.dyn_peer[87] 	lookupTimeSig:mean 	3
scalar Network.dyn_peer[87] 	lookupStabilitySig:mean 	0.21303840974967
scalar Network.dyn_peer[87] 	lookupHopsSig:mean 	29.333333333333
scalar Network.dyn_peer[88] 	lookupTimeSig:mean 	2.5142857142857
scalar Network.dyn_peer[88] 	lookupStabilitySig:mean 	0.87981102908296
scalar Network.dyn_peer[88] 	lookupHopsSig:mean 	24.285714285714
scalar Network.dyn_peer[89] 	lookupTimeSig:mean 	1.9666666666667
scalar Network.dyn_peer[89] 	lookupStabilitySig:mean 	0.41893290355802
scalar Network.dyn_peer[89] 	lookupHopsSig:mean 	19
scalar Network.dyn_peer[90] 	lookupTimeSig:mean 	2.55
scalar Network.dyn_peer[90] 	lookupStabilitySig:mean 	0.50559210404754
scalar Network.dyn_peer[90] 	lookupHopsSig:mean 	24.75
scalar Network.dyn_peer[91] 	lookupTimeSig:mean 	2.2666666666667
scalar Network.dyn_peer[91] 	lookupStabilitySig:mean 	0.86922717653215
scalar Network.dyn_peer[91] 	lookupHopsSig:mean 	21.833333333333
scalar Network.dyn_peer[92] 	lookupTimeSig:mean 	1.6
scalar Network.dyn_peer[92] 	lookupStabilitySig:mean 	-0.042124539613724
scalar Network.dyn_peer[92] 	lookupHopsSig:mean 	15.5
scalar Network.dyn_peer[93] 	lookupTimeSig:mean 	1.85
scalar Network.dyn_peer[93] 	lookupStabilitySig:mean 	0.78861922646562
scalar Network.dyn_peer[93] 	lookupHopsSig:mean 	17.666666666667
scalar Network.dyn_peer[94] 	lookupTimeSig:mean 	1.49
scalar Network.dyn_peer[94] 	lookupStabilitySig:mean 	0.91967231458984
scalar Network.dyn_peer[94] 	lookupHopsSig:mean 	14
scalar Network.dyn_peer[95] 	lookupTimeSig:mean 	2.8666666666667
scalar Network.dyn_peer[95] 	lookupStabilitySig:mean 	0.53361271570126
scalar Network.dyn_peer[95] 	lookupHopsSig:mean 	28
scalar Network.dyn_peer[96] 	lookupTimeSig:mean 	1.3166666666667
scalar Network.dyn_peer[96] 	lookupStabilitySig:mean 	0.60108975724628
scalar Network.dyn_peer[96] 	lookupHopsSig:mean 	12.333333333333
scalar Network.dyn_peer[97] 	lookupTimeSig:mean 	1.88
scalar Network.dyn_peer[97] 	lookupStabilitySig:mean 	0.61147583089769
scalar Network.dyn_peer[97] 	lookupHopsSig:mean 	18
scalar Network.dyn_peer[98] 	lookupTimeSig:mean 	1.2
scalar Network.dyn_peer[98] 	lookupStabilitySig:mean 	0.48906251043081
scalar Network.dyn_peer[98] 	lookupHopsSig:mean 	11.25
scalar Network.dyn_peer[99] 	lookupTimeSig:mean 	1.8
scalar Network.dyn_peer[99] 	lookupStabilitySig:mean 	0.71468253433704
scalar Network.dyn_peer[99] 	lookupHopsSig:mean 	17.333333333333
scalar Network.dyn_peer[100] 	lookupTimeSig:mean 	1.9
scalar Network.dyn_peer[100] 	lookupStabilitySig:mean 	0.57214220911264
scalar Network.dyn_peer[100] 	lookupHopsSig:mean 	18.2
scalar Network.dyn_peer[101] 	lookupTimeSig:mean 	1.3833333333333
scalar Network.dyn_peer[101] 	lookupStabilitySig:mean 	0.74966602089504
scalar Network.dyn_peer[101] 	lookupHopsSig:mean 	13
scalar Network.dyn_peer[102] 	lookupTimeSig:mean 	1.7428571428571
scalar Network.dyn_peer[102] 	lookupStabilitySig:mean 	0.74132328453873
scalar Network.dyn_peer[102] 	lookupHopsSig:mean 	16.571428571429
scalar Network.dyn_peer[103] 	lookupTimeSig:mean 	1.4
scalar Network.dyn_peer[103] 	lookupStabilitySig:mean 	0.67305911378935
scalar Network.dyn_peer[103] 	lookupHopsSig:mean 	13.25
scalar Network.dyn_peer[104] 	lookupTimeSig:mean 	1.4333333333333
scalar Network.dyn_peer[104] 	lookupStabilitySig:mean 	0.3391053378582
scalar Network.dyn_peer[104] 	lookupHopsSig:mean 	13.666666666667
scalar Network.dyn_peer[105] 	lookupTimeSig:mean 	2.24
scalar Network.dyn_peer[105] 	lookupStabilitySig:mean 	0.94751435928047
scalar Network.dyn_peer[105] 	lookupHopsSig:mean 	21.5
scalar Network.dyn_peer[106] 	lookupTimeSig:mean 	3.225
scalar Network.dyn_peer[106] 	lookupStabilitySig:mean 	0.86365411966108
scalar Network.dyn_peer[106] 	lookupHopsSig:mean 	31.5
scalar Network.dyn_peer[107] 	lookupTimeSig:mean 	1.7444444444444
scalar Network.dyn_peer[107] 	lookupStabilitySig:mean 	0.74023635882056
scalar Network.dyn_peer[107] 	lookupHopsSig:mean 	16.555555555556
scalar Network.dyn_peer[108] 	lookupTimeSig:mean 	1.2
scalar Network.dyn_peer[108] 	lookupStabilitySig:mean 	0.67305710166693
scalar Network.dyn_peer[108] 	lookupHopsSig:mean 	11.333333333333
scalar Network.dyn_peer[109] 	lookupTimeSig:mean 	1.525
scalar Network.dyn_peer[109] 	lookupStabilitySig:mean 	0.74910612683743
scalar Network.dyn_peer[109] 	lookupHopsSig:mean 	14.375
scalar Network.dyn_peer[110] 	lookupTimeSig:mean 	1.4846153846154
scalar Network.dyn_peer[110] 	lookupStabilitySig:mean 	0.95874274192521
scalar Network.dyn_peer[110] 	lookupHopsSig:mean 	13.923076923077
scalar Network.dyn_peer[111] 	lookupTimeSig:mean 	2.6
scalar Network.dyn_peer[111] 	lookupStabilitySig:mean 	0.24537038803101
scalar Network.dyn_peer[111] 	lookupHopsSig:mean 	25.5
scalar Network.dyn_peer[112] 	lookupTimeSig:mean 	1.1666666666667
scalar Network.dyn_peer[112] 	lookupStabilitySig:mean 	0.757655462871
scalar Network.dyn_peer[112] 	lookupHopsSig:mean 	10.833333333333
scalar Network.dyn_peer[113] 	lookupTimeSig:mean 	1.9666666666667
scalar Network.dyn_peer[113] 	lookupStabilitySig:mean 	0.43004742761453
scalar Network.dyn_peer[113] 	lookupHopsSig:mean 	19
scalar Network.dyn_peer[114] 	lookupTimeSig:mean 	1.425
scalar Network.dyn_peer[114] 	lookupStabilitySig:mean 	0.52613267954439
scalar Network.dyn_peer[114] 	lookupHopsSig:mean 	13.5
scalar Network.dyn_peer[115] 	lookupTimeSig:mean 	1.3333333333333
scalar Network.dyn_peer[115] 	lookupStabilitySig:mean 	0.27252745131652
scalar Network.dyn_peer[115] 	lookupHopsSig:mean 	12.666666666667
scalar Network.dyn_peer[116] 	lookupTimeSig:mean 	2
scalar Network.dyn_peer[116] 	lookupStabilitySig:mean 	0.55287999783953
scalar Network.dyn_peer[116] 	lookupHopsSig:mean 	19.333333333333
scalar Network.dyn_peer[117] 	lookupTimeSig:mean 	2.0666666666667
scalar Network.dyn_peer[117] 	lookupStabilitySig:mean 	0.42536754906178
scalar Network.dyn_peer[117] 	lookupHopsSig:mean 	20
scalar Network.dyn_peer[118] 	lookupTimeSig:mean 	1.9333333333333
scalar Network.dyn_peer[118] 	lookupStabilitySig:mean 	0.65519713796675
scalar Network.dyn_peer[118] 	lookupHopsSig:mean 	18.5
scalar Network.dyn_peer[119] 	lookupTimeSig:mean 	1.8666666666667
scalar Network.dyn_peer[119] 	lookupStabilitySig:mean 	0.33187347650528
scalar Network.dyn_peer[119] 	lookupHopsSig:mean 	18
scalar Network.dyn_peer[120] 	lookupTimeSig:mean 	1.8714285714286
scalar Network.dyn_peer[120] 	lookupStabilitySig:mean 	0.87889545929751
scalar Network.dyn_peer[120] 	lookupHopsSig:mean 	17.857142857143
scalar Network.dyn_peer[121] 	lookupTimeSig:mean 	2.2230769230769
scalar Network.dyn_peer[121] 	lookupStabilitySig:mean 	0.97120075042431
scalar Network.dyn_peer[121] 	lookupHopsSig:mean 	21.307692307692
scalar Network.dyn_peer[122] 	lookupTimeSig:mean 	1.45
scalar Network.dyn_peer[122] 	lookupStabilitySig:mean 	0.5625644181855
scalar Network.dyn_peer[122] 	lookupHopsSig:mean 	13.75
scalar Network.dyn_peer[123] 	lookupTimeSig:mean 	1.8428571428571
scalar Network.dyn_peer[123] 	lookupStabilitySig:mean 	0.87139629373061
scalar Network.dyn_peer[123] 	lookupHopsSig:mean 	17.571428571429
scalar Network.dyn_peer[124] 	lookupTimeSig:mean 	2.05
scalar Network.dyn_peer[124] 	lookupStabilitySig:mean 	0.94714243565686
scalar Network.dyn_peer[124] 	lookupHopsSig:mean 	19.6
scalar Network.dyn_peer[125] 	lookupTimeSig:mean 	1.7
scalar Network.dyn_peer[125] 	lookupStabilitySig:mean 	0.68723038832347
scalar Network.dyn_peer[125] 	lookupHopsSig:mean 	16.166666666667
scalar Network.dyn_peer[126] 	lookupTimeSig:mean 	1.62
scalar Network.dyn_peer[126] 	lookupStabilitySig:mean 	0.84176881089807
scalar Network.dyn_peer[126] 	lookupHopsSig:mean 	15.4
scalar Network.dyn_peer[127] 	lookupTimeSig:mean 	1.9714285714286
scalar Network.dyn_peer[127] 	lookupStabilitySig:mean 	0.80030655754464
scalar Network.dyn_peer[127] 	lookupHopsSig:mean 	18.857142857143
scalar Network.dyn_peer[128] 	lookupTimeSig:mean 	1.475
scalar Network.dyn_peer[128] 	lookupStabilitySig:mean 	0.5274004265666
scalar Network.dyn_peer[128] 	lookupHopsSig:mean 	14
scalar Network.dyn_peer[129] 	lookupTimeSig:mean 	2.84
scalar Network.dyn_peer[129] 	lookupStabilitySig:mean 	0.86433046385646
scalar Network.dyn_peer[129] 	lookupHopsSig:mean 	27.6
scalar Network.dyn_peer[130] 	lookupTimeSig:mean 	1.625
scalar Network.dyn_peer[130] 	lookupStabilitySig:mean 	0.73656531050801
scalar Network.dyn_peer[130] 	lookupHopsSig:mean 	15.5
scalar Network.dyn_peer[131] 	lookupTimeSig:mean 	1.75
scalar Network.dyn_peer[131] 	lookupStabilitySig:mean 	0.50641419366002
scalar Network.dyn_peer[131] 	lookupHopsSig:mean 	16.75
scalar Network.dyn_peer[132] 	lookupTimeSig:mean 	2.0777777777778
scalar Network.dyn_peer[132] 	lookupStabilitySig:mean 	0.93210141937662
scalar Network.dyn_peer[132] 	lookupHopsSig:mean 	19.888888888889
scalar Network.dyn_peer[133] 	lookupTimeSig:mean 	1.8142857142857
scalar Network.dyn_peer[133] 	lookupStabilitySig:mean 	0.83632446479584
scalar Network.dyn_peer[133] 	lookupHopsSig:mean 	17.285714285714
scalar Network.dyn_peer[134] 	lookupTimeSig:mean 	1.54
scalar Network.dyn_peer[134] 	lookupStabilitySig:mean 	0.60350311398506
scalar Network.dyn_peer[134] 	lookupHopsSig:mean 	14.6
scalar Network.dyn_peer[135] 	lookupTimeSig:mean 	1.16
scalar Network.dyn_peer[135] 	lookupStabilitySig:mean 	0.67268377393484
scalar Network.dyn_peer[135] 	lookupHopsSig:mean 	10.8
scalar Network.dyn_peer[136] 	lookupTimeSig:mean 	2.4428571428571
scalar Network.dyn_peer[136] 	lookupStabilitySig:mean 	0.90269408561289
scalar Network.dyn_peer[136] 	lookupHopsSig:mean 	23.571428571429
scalar Network.dyn_peer[137] 	lookupTimeSig:mean 	2.025
scalar Network.dyn_peer[137] 	lookupStabilitySig:mean 	0.66199754923582
scalar Network.dyn_peer[137] 	lookupHopsSig:mean 	19.5
scalar Network.dyn_peer[138] 	lookupTimeSig:mean 	1.7
scalar Network.dyn_peer[138] 	lookupStabilitySig:mean 	0.80044142405192
scalar Network.dyn_peer[138] 	lookupHopsSig:mean 	16.166666666667
scalar Network.dyn_peer[139] 	lookupTimeSig:mean 	2.45
scalar Network.dyn_peer[139] 	lookupStabilitySig:mean 	0.66352942213416
scalar Network.dyn_peer[139] 	lookupHopsSig:mean 	24
scalar Network.dyn_peer[140] 	lookupTimeSig:mean 	1.97
scalar Network.dyn_peer[140] 	lookupStabilitySig:mean 	0.90588975055143
scalar Network.dyn_peer[140] 	lookupHopsSig:mean 	18.8
scalar Network.dyn_peer[141] 	lookupTimeSig:mean 	1.025
scalar Network.dyn_peer[141] 	lookupStabilitySig:mean 	0.47820376511663
scalar Network.dyn_peer[141] 	lookupHopsSig:mean 	9.5
scalar Network.dyn_peer[142] 	lookupTimeSig:mean 	1.8125
scalar Network.dyn_peer[142] 	lookupStabilitySig:mean 	0.81102852767799
scalar Network.dyn_peer[142] 	lookupHopsSig:mean 	17.25
scalar Network.dyn_peer[143] 	lookupTimeSig:mean 	2.2666666666667
scalar Network.dyn_peer[143] 	lookupStabilitySig:mean 	0.42364547153314
scalar Network.dyn_peer[143] 	lookupHopsSig:mean 	22
scalar Network.dyn_peer[144] 	lookupTimeSig:mean 	1.4555555555556
scalar Network.dyn_peer[144] 	lookupStabilitySig:mean 	0.82684349682596
scalar Network.dyn_peer[144] 	lookupHopsSig:mean 	13.666666666667
scalar Network.dyn_peer[145] 	lookupTimeSig:mean 	1.6111111111111
scalar Network.dyn_peer[145] 	lookupStabilitySig:mean 	0.8806291731954
scalar Network.dyn_peer[145] 	lookupHopsSig:mean 	15.222222222222
scalar Network.dyn_peer[146] 	lookupTimeSig:mean 	2.7666666666667
scalar Network.dyn_peer[146] 	lookupStabilitySig:mean 	0.85724963682393
scalar Network.dyn_peer[146] 	lookupHopsSig:mean 	27
scalar Network.dyn_peer[147] 	lookupTimeSig:mean 	1.8666666666667
scalar Network.dyn_peer[147] 	lookupStabilitySig:mean 	0.4790308997035
scalar Network.dyn_peer[147] 	lookupHopsSig:mean 	18
scalar Network.dyn_peer[148] 	lookupTimeSig:mean 	2.3
scalar Network.dyn_peer[148] 	lookupStabilitySig:mean 	0.55880942009389
scalar Network.dyn_peer[148] 	lookupHopsSig:mean 	22.2
scalar Network.dyn_peer[149] 	lookupTimeSig:mean 	1.5
scalar Network.dyn_peer[149] 	lookupStabilitySig:mean 	0.8536852421239
scalar Network.dyn_peer[149] 	lookupHopsSig:mean 	14.142857142857
scalar Network.dyn_peer[150] 	lookupTimeSig:mean 	1.4416666666667
scalar Network.dyn_peer[150] 	lookupStabilitySig:mean 	0.78186797412733
scalar Network.dyn_peer[150] 	lookupHopsSig:mean 	13.5
scalar Network.dyn_peer[151] 	lookupTimeSig:mean 	1.3
scalar Network.dyn_peer[151] 	lookupStabilitySig:mean 	0.52857142314315
scalar Network.dyn_peer[151] 	lookupHopsSig:mean 	12.25
scalar Network.dyn_peer[152] 	lookupTimeSig:mean 	2.0272727272727
scalar Network.dyn_peer[152] 	lookupStabilitySig:mean 	0.88822638963095
scalar Network.dyn_peer[152] 	lookupHopsSig:mean 	19.363636363636
scalar Network.dyn_peer[153] 	lookupTimeSig:mean 	2.1
scalar Network.dyn_peer[153] 	lookupStabilitySig:mean 	0.21100425720215
scalar Network.dyn_peer[153] 	lookupHopsSig:mean 	20.5
scalar Network.dyn_peer[154] 	lookupTimeSig:mean 	2.625
scalar Network.dyn_peer[154] 	lookupStabilitySig:mean 	0.56479842215776
scalar Network.dyn_peer[154] 	lookupHopsSig:mean 	25.5
scalar Network.dyn_peer[155] 	lookupTimeSig:mean 	1.2166666666667
scalar Network.dyn_peer[155] 	lookupStabilitySig:mean 	0.7864464049538
scalar Network.dyn_peer[155] 	lookupHopsSig:mean 	11.333333333333
scalar Network.dyn_peer[156] 	lookupTimeSig:mean 	1.2090909090909
scalar Network.dyn_peer[156] 	lookupStabilitySig:mean 	0.8241131012328
scalar Network.dyn_peer[156] 	lookupHopsSig:mean 	11.181818181818
scalar Network.dyn_peer[157] 	lookupTimeSig:mean 	2.1
scalar Network.dyn_peer[157] 	lookupStabilitySig:mean 	0.78001561313868
scalar Network.dyn_peer[157] 	lookupHopsSig:mean 	20.2
scalar Network.dyn_peer[158] 	lookupTimeSig:mean 	1.4692307692308
scalar Network.dyn_peer[158] 	lookupStabilitySig:mean 	0.84145230069183
scalar Network.dyn_peer[158] 	lookupHopsSig:mean 	13.769230769231
scalar Network.dyn_peer[159] 	lookupTimeSig:mean 	1.5666666666667
scalar Network.dyn_peer[159] 	lookupStabilitySig:mean 	0.60659775945048
scalar Network.dyn_peer[159] 	lookupHopsSig:mean 	14.833333333333
scalar Network.dyn_peer[160] 	lookupTimeSig:mean 	2.3333333333333
scalar Network.dyn_peer[160] 	lookupStabilitySig:mean 	0.73652537167072
scalar Network.dyn_peer[160] 	lookupHopsSig:mean 	22.666666666667
scalar Network.dyn_peer[161] 	lookupTimeSig:mean 	1.34
scalar Network.dyn_peer[161] 	lookupStabilitySig:mean 	0.65877332612872
scalar Network.dyn_peer[161] 	lookupHopsSig:mean 	12.6
scalar Network.dyn_peer[162] 	lookupTimeSig:mean 	2.3
scalar Network.dyn_peer[162] 	lookupStabilitySig:mean 	0.4720770418644
scalar Network.dyn_peer[162] 	lookupHopsSig:mean 	22.333333333333
scalar Network.dyn_peer[163] 	lookupTimeSig:mean 	1.3
scalar Network.dyn_peer[163] 	lookupStabilitySig:mean 	0.61550315283239
scalar Network.dyn_peer[163] 	lookupHopsSig:mean 	12.166666666667
scalar Network.dyn_peer[164] 	lookupTimeSig:mean 	2.4
scalar Network.dyn_peer[164] 	lookupStabilitySig:mean 	0.93095809500664
scalar Network.dyn_peer[164] 	lookupHopsSig:mean 	23.125
scalar Network.dyn_peer[165] 	lookupTimeSig:mean 	1.825
scalar Network.dyn_peer[165] 	lookupStabilitySig:mean 	0.48913284018636
scalar Network.dyn_peer[165] 	lookupHopsSig:mean 	17.5
scalar Network.dyn_peer[166] 	lookupTimeSig:mean 	2.8
scalar Network.dyn_peer[166] 	lookupStabilitySig:mean 	0.79875764902681
scalar Network.dyn_peer[166] 	lookupHopsSig:mean 	27.25
scalar Network.dyn_peer[167] 	lookupTimeSig:mean 	2.725
scalar Network.dyn_peer[167] 	lookupStabilitySig:mean 	0.74688213318586
scalar Network.dyn_peer[167] 	lookupHopsSig:mean 	26.5
scalar Network.dyn_peer[168] 	lookupTimeSig:mean 	2.5571428571429
scalar Network.dyn_peer[168] 	lookupStabilitySig:mean 	0.79463355535907
scalar Network.dyn_peer[168] 	lookupHopsSig:mean 	24.714285714286
scalar Network.dyn_peer[169] 	lookupTimeSig:mean 	1.15
scalar Network.dyn_peer[169] 	lookupStabilitySig:mean 	0.51907894387841
scalar Network.dyn_peer[169] 	lookupHopsSig:mean 	10.75
scalar Network.dyn_peer[170] 	lookupTimeSig:mean 	2.32
scalar Network.dyn_peer[170] 	lookupStabilitySig:mean 	0.82708705533296
scalar Network.dyn_peer[170] 	lookupHopsSig:mean 	22.4
scalar Network.dyn_peer[171] 	lookupTimeSig:mean 	1.6
scalar Network.dyn_peer[171] 	lookupStabilitySig:mean 	0.90480083118503
scalar Network.dyn_peer[171] 	lookupHopsSig:mean 	15.166666666667
scalar Network.dyn_peer[172] 	lookupTimeSig:mean 	1.3666666666667
scalar Network.dyn_peer[172] 	lookupStabilitySig:mean 	0.87028561418669
scalar Network.dyn_peer[172] 	lookupHopsSig:mean 	12.777777777778
scalar Network.dyn_peer[173] 	lookupTimeSig:mean 	1.625
scalar Network.dyn_peer[173] 	lookupStabilitySig:mean 	0.63137278240174
scalar Network.dyn_peer[173] 	lookupHopsSig:mean 	15.5
scalar Network.dyn_peer[174] 	lookupTimeSig:mean 	1.3285714285714
scalar Network.dyn_peer[174] 	lookupStabilitySig:mean 	0.8086464229439
scalar Network.dyn_peer[174] 	lookupHopsSig:mean 	12.428571428571
scalar Network.dyn_peer[175] 	lookupTimeSig:mean 	2.1
scalar Network.dyn_peer[175] 	lookupStabilitySig:mean 	0.94620069302619
scalar Network.dyn_peer[175] 	lookupHopsSig:mean 	20.142857142857
scalar Network.dyn_peer[176] 	lookupTimeSig:mean 	2.54
scalar Network.dyn_peer[176] 	lookupStabilitySig:mean 	0.91133916787803
scalar Network.dyn_peer[176] 	lookupHopsSig:mean 	24.6
scalar Network.dyn_peer[177] 	lookupTimeSig:mean 	2.0571428571429
scalar Network.dyn_peer[177] 	lookupStabilitySig:mean 	0.85840452063297
scalar Network.dyn_peer[177] 	lookupHopsSig:mean 	19.714285714286
scalar Network.dyn_peer[178] 	lookupTimeSig:mean 	2
scalar Network.dyn_peer[178] 	lookupStabilitySig:mean 	0.65635470598936
scalar Network.dyn_peer[178] 	lookupHopsSig:mean 	19.2
scalar Network.dyn_peer[179] 	lookupTimeSig:mean 	3.0333333333333
scalar Network.dyn_peer[179] 	lookupStabilitySig:mean 	0.4535531103611
scalar Network.dyn_peer[179] 	lookupHopsSig:mean 	29.666666666667
scalar Network.dyn_peer[180] 	lookupTimeSig:mean 	3.3333333333333
scalar Network.dyn_peer[180] 	lookupStabilitySig:mean 	0.8391359920303
scalar Network.dyn_peer[180] 	lookupHopsSig:mean 	32.666666666667
scalar Network.dyn_peer[181] 	lookupTimeSig:mean 	0.7625
scalar Network.dyn_peer[181] 	lookupStabilitySig:mean 	0.80015783902491
scalar Network.dyn_peer[181] 	lookupHopsSig:mean 	6.75
scalar Network.dyn_peer[182] 	lookupTimeSig:mean 	1.1333333333333
scalar Network.dyn_peer[182] 	lookupStabilitySig:mean 	0.68166996476551
scalar Network.dyn_peer[182] 	lookupHopsSig:mean 	10.5
scalar Network.dyn_peer[183] 	lookupTimeSig:mean 	1.8
scalar Network.dyn_peer[183] 	lookupStabilitySig:mean 	0.4234417527914
scalar Network.dyn_peer[183] 	lookupHopsSig:mean 	17.333333333333
scalar Network.dyn_peer[184] 	lookupTimeSig:mean 	1.6142857142857
scalar Network.dyn_peer[184] 	lookupStabilitySig:mean 	0.73561306856573
scalar Network.dyn_peer[184] 	lookupHopsSig:mean 	15.285714285714
scalar Network.dyn_peer[185] 	lookupTimeSig:mean 	1.3
scalar Network.dyn_peer[185] 	lookupStabilitySig:mean 	0.76631734582285
scalar Network.dyn_peer[185] 	lookupHopsSig:mean 	12.111111111111
scalar Network.dyn_peer[186] 	lookupTimeSig:mean 	1.9
scalar Network.dyn_peer[186] 	lookupStabilitySig:mean 	0.46047009465595
scalar Network.dyn_peer[186] 	lookupHopsSig:mean 	18.333333333333
scalar Network.dyn_peer[187] 	lookupTimeSig:mean 	1.175
scalar Network.dyn_peer[187] 	lookupStabilitySig:mean 	0.46821394190192
scalar Network.dyn_peer[187] 	lookupHopsSig:mean 	11
scalar Network.dyn_peer[188] 	lookupTimeSig:mean 	1.4142857142857
scalar Network.dyn_peer[188] 	lookupStabilitySig:mean 	0.67803084238299
scalar Network.dyn_peer[188] 	lookupHopsSig:mean 	13.285714285714
scalar Network.dyn_peer[189] 	lookupTimeSig:mean 	2.8666666666667
scalar Network.dyn_peer[189] 	lookupStabilitySig:mean 	0.7108534052968
scalar Network.dyn_peer[189] 	lookupHopsSig:mean 	28
scalar Network.dyn_peer[190] 	lookupTimeSig:mean 	2.45
scalar Network.dyn_peer[190] 	lookupStabilitySig:mean 	0.63765068165958
scalar Network.dyn_peer[190] 	lookupHopsSig:mean 	23.75
scalar Network.dyn_peer[191] 	lookupTimeSig:mean 	1.46
scalar Network.dyn_peer[191] 	lookupStabilitySig:mean 	0.66213529706001
scalar Network.dyn_peer[191] 	lookupHopsSig:mean 	13.8
scalar Network.dyn_peer[192] 	lookupTimeSig:mean 	1.9
scalar Network.dyn_peer[192] 	lookupStabilitySig:mean 	0.6925968658179
scalar Network.dyn_peer[192] 	lookupHopsSig:mean 	18.166666666667
scalar Network.dyn_peer[193] 	lookupTimeSig:mean 	2.25
scalar Network.dyn_peer[193] 	lookupStabilitySig:mean 	0.84495488146786
scalar Network.dyn_peer[193] 	lookupHopsSig:mean 	21.625
scalar Network.dyn_peer[194] 	lookupTimeSig:mean 	2.825
scalar Network.dyn_peer[194] 	lookupStabilitySig:mean 	0.45927398325875
scalar Network.dyn_peer[194] 	lookupHopsSig:mean 	27.5
scalar Network.dyn_peer[195] 	lookupTimeSig:mean 	1.4454545454545
scalar Network.dyn_peer[195] 	lookupStabilitySig:mean 	0.93394759523852
scalar Network.dyn_peer[195] 	lookupHopsSig:mean 	13.545454545455
scalar Network.dyn_peer[196] 	lookupTimeSig:mean 	2.25
scalar Network.dyn_peer[196] 	lookupStabilitySig:mean 	0.64459738135338
scalar Network.dyn_peer[196] 	lookupHopsSig:mean 	21.75
scalar Network.dyn_peer[197] 	lookupTimeSig:mean 	1.5111111111111
scalar Network.dyn_peer[197] 	lookupStabilitySig:mean 	0.83531910160349
scalar Network.dyn_peer[197] 	lookupHopsSig:mean 	14.222222222222
scalar Network.dyn_peer[198] 	lookupTimeSig:mean 	1.9
scalar Network.dyn_peer[198] 	lookupStabilitySig:mean 	0.68956533431386
scalar Network.dyn_peer[198] 	lookupHopsSig:mean 	18.166666666667
scalar Network.dyn_peer[199] 	lookupTimeSig:mean 	1.4833333333333
scalar Network.dyn_peer[199] 	lookupStabilitySig:mean 	0.73601879241566
scalar Network.dyn_peer[199] 	lookupHopsSig:mean 	14
scalar Network.dyn_peer[200] 	lookupTimeSig:mean 	4.2666666666667
scalar Network.dyn_peer[200] 	lookupStabilitySig:mean 	0.90571984089911
scalar Network.dyn_peer[200] 	lookupHopsSig:mean 	42
scalar Network.dyn_peer[201] 	lookupTimeSig:mean 	2.0235294117647
scalar Network.dyn_peer[201] 	lookupStabilitySig:mean 	0.96336680464447
scalar Network.dyn_peer[201] 	lookupHopsSig:mean 	19.294117647059
scalar Network.dyn_peer[202] 	lookupTimeSig:mean 	1.625
scalar Network.dyn_peer[202] 	lookupStabilitySig:mean 	0.89136206486728
scalar Network.dyn_peer[202] 	lookupHopsSig:mean 	15.3125
scalar Network.dyn_peer[203] 	lookupTimeSig:mean 	3.2714285714286
scalar Network.dyn_peer[203] 	lookupStabilitySig:mean 	0.94485062294241
scalar Network.dyn_peer[203] 	lookupHopsSig:mean 	31.857142857143
scalar Network.dyn_peer[204] 	lookupTimeSig:mean 	2.0333333333333
scalar Network.dyn_peer[204] 	lookupStabilitySig:mean 	0.87983696876715
scalar Network.dyn_peer[204] 	lookupHopsSig:mean 	19.5
scalar Network.dyn_peer[205] 	lookupTimeSig:mean 	2.1833333333333
scalar Network.dyn_peer[205] 	lookupStabilitySig:mean 	0.86002088322615
scalar Network.dyn_peer[205] 	lookupHopsSig:mean 	21
scalar Network.dyn_peer[206] 	lookupTimeSig:mean 	2.9
scalar Network.dyn_peer[206] 	lookupStabilitySig:mean 	0.80250439746305
scalar Network.dyn_peer[206] 	lookupHopsSig:mean 	28.25
scalar Network.dyn_peer[207] 	lookupTimeSig:mean 	2.9
scalar Network.dyn_peer[207] 	lookupStabilitySig:mean 	0.1713957041502
scalar Network.dyn_peer[207] 	lookupHopsSig:mean 	28.5
scalar Network.dyn_peer[208] 	lookupTimeSig:mean 	2.5
scalar Network.dyn_peer[208] 	lookupStabilitySig:mean 	0.62364729028195
scalar Network.dyn_peer[208] 	lookupHopsSig:mean 	24.25
scalar Network.dyn_peer[209] 	lookupTimeSig:mean 	2.2
scalar Network.dyn_peer[209] 	lookupStabilitySig:mean 	0.65291813574731
scalar Network.dyn_peer[209] 	lookupHopsSig:mean 	21.2
scalar Network.dyn_peer[210] 	lookupTimeSig:mean 	1.825
scalar Network.dyn_peer[210] 	lookupStabilitySig:mean 	0.9570126416899
scalar Network.dyn_peer[210] 	lookupHopsSig:mean 	17.333333333333
scalar Network.dyn_peer[211] 	lookupTimeSig:mean 	2
scalar Network.dyn_peer[211] 	lookupStabilitySig:mean 	0.4784182185928
scalar Network.dyn_peer[211] 	lookupHopsSig:mean 	19.333333333333
scalar Network.dyn_peer[212] 	lookupTimeSig:mean 	4.65
scalar Network.dyn_peer[212] 	lookupStabilitySig:mean 	0.6891625598073
scalar Network.dyn_peer[212] 	lookupHopsSig:mean 	46
scalar Network.dyn_peer[213] 	lookupTimeSig:mean 	3.2
scalar Network.dyn_peer[213] 	lookupStabilitySig:mean 	0.89178279414773
scalar Network.dyn_peer[213] 	lookupHopsSig:mean 	31.333333333333
scalar Network.dyn_peer[214] 	lookupTimeSig:mean 	2.7909090909091
scalar Network.dyn_peer[214] 	lookupStabilitySig:mean 	0.94747170949863
scalar Network.dyn_peer[214] 	lookupHopsSig:mean 	27
scalar Network.dyn_peer[215] 	lookupTimeSig:mean 	1.6272727272727
scalar Network.dyn_peer[215] 	lookupStabilitySig:mean 	0.78005943413485
scalar Network.dyn_peer[215] 	lookupHopsSig:mean 	15.363636363636
scalar Network.dyn_peer[216] 	lookupTimeSig:mean 	2.7
scalar Network.dyn_peer[216] 	lookupStabilitySig:mean 	0.79304994270205
scalar Network.dyn_peer[216] 	lookupHopsSig:mean 	26.25
scalar Network.dyn_peer[217] 	lookupTimeSig:mean 	2.0714285714286
scalar Network.dyn_peer[217] 	lookupStabilitySig:mean 	0.89421854620533
scalar Network.dyn_peer[217] 	lookupHopsSig:mean 	19.857142857143
scalar Network.dyn_peer[218] 	lookupTimeSig:mean 	3.325
scalar Network.dyn_peer[218] 	lookupStabilitySig:mean 	0.70511936862022
scalar Network.dyn_peer[218] 	lookupHopsSig:mean 	32.5
scalar Network.dyn_peer[219] 	lookupTimeSig:mean 	2.3
scalar Network.dyn_peer[219] 	lookupStabilitySig:mean 	0.65048112720251
scalar Network.dyn_peer[219] 	lookupHopsSig:mean 	22.5
scalar Network.dyn_peer[220] 	lookupTimeSig:mean 	1.6428571428571
scalar Network.dyn_peer[220] 	lookupStabilitySig:mean 	0.77180857237961
scalar Network.dyn_peer[220] 	lookupHopsSig:mean 	15.571428571429
scalar Network.dyn_peer[221] 	lookupTimeSig:mean 	2.675
scalar Network.dyn_peer[221] 	lookupStabilitySig:mean 	0.69193895487115
scalar Network.dyn_peer[221] 	lookupHopsSig:mean 	26
scalar Network.dyn_peer[222] 	lookupTimeSig:mean 	1.5833333333333
scalar Network.dyn_peer[222] 	lookupStabilitySig:mean 	0.89828186350254
scalar Network.dyn_peer[222] 	lookupHopsSig:mean 	15
scalar Network.dyn_peer[223] 	lookupTimeSig:mean 	1.6272727272727
scalar Network.dyn_peer[223] 	lookupStabilitySig:mean 	0.7973468252881
scalar Network.dyn_peer[223] 	lookupHopsSig:mean 	15.363636363636
scalar Network.dyn_peer[224] 	lookupTimeSig:mean 	2.025
scalar Network.dyn_peer[224] 	lookupStabilitySig:mean 	0.51564708026126
scalar Network.dyn_peer[224] 	lookupHopsSig:mean 	19.5
scalar Network.dyn_peer[225] 	lookupTimeSig:mean 	0.97142857142857
scalar Network.dyn_peer[225] 	lookupStabilitySig:mean 	0.70877990605576
scalar Network.dyn_peer[225] 	lookupHopsSig:mean 	8.8571428571429
scalar Network.dyn_peer[226] 	lookupTimeSig:mean 	2.0333333333333
scalar Network.dyn_peer[226] 	lookupStabilitySig:mean 	0.73547345834474
scalar Network.dyn_peer[226] 	lookupHopsSig:mean 	19.5
scalar Network.dyn_peer[227] 	lookupTimeSig:mean 	3.075
scalar Network.dyn_peer[227] 	lookupStabilitySig:mean 	0.87475678278133
scalar Network.dyn_peer[227] 	lookupHopsSig:mean 	30
scalar Network.dyn_peer[228] 	lookupTimeSig:mean 	1.7142857142857
scalar Network.dyn_peer[228] 	lookupStabilitySig:mean 	0.86759766297681
scalar Network.dyn_peer[228] 	lookupHopsSig:mean 	16.285714285714
scalar Network.dyn_peer[229] 	lookupTimeSig:mean 	2.1375
scalar Network.dyn_peer[229] 	lookupStabilitySig:mean 	0.75948141166009
scalar Network.dyn_peer[229] 	lookupHopsSig:mean 	20.5
scalar Network.dyn_peer[230] 	lookupTimeSig:mean 	2.08
scalar Network.dyn_peer[230] 	lookupStabilitySig:mean 	0.67238593399525
scalar Network.dyn_peer[230] 	lookupHopsSig:mean 	20
scalar Network.dyn_peer[231] 	lookupTimeSig:mean 	2.55
scalar Network.dyn_peer[231] 	lookupStabilitySig:mean 	0.73336097504944
scalar Network.dyn_peer[231] 	lookupHopsSig:mean 	24.666666666667
scalar Network.dyn_peer[232] 	lookupTimeSig:mean 	1.53
scalar Network.dyn_peer[232] 	lookupStabilitySig:mean 	0.87406630474143
scalar Network.dyn_peer[232] 	lookupHopsSig:mean 	14.4
scalar Network.dyn_peer[233] 	lookupTimeSig:mean 	2
scalar Network.dyn_peer[233] 	lookupStabilitySig:mean 	0.54939212463796
scalar Network.dyn_peer[233] 	lookupHopsSig:mean 	19.25
scalar Network.dyn_peer[234] 	lookupTimeSig:mean 	2.2
scalar Network.dyn_peer[234] 	lookupStabilitySig:mean 	0.58341709896922
scalar Network.dyn_peer[234] 	lookupHopsSig:mean 	21.25
scalar Network.dyn_peer[235] 	lookupTimeSig:mean 	1.34
scalar Network.dyn_peer[235] 	lookupStabilitySig:mean 	0.75118483807892
scalar Network.dyn_peer[235] 	lookupHopsSig:mean 	12.5
scalar Network.dyn_peer[236] 	lookupTimeSig:mean 	2.425
scalar Network.dyn_peer[236] 	lookupStabilitySig:mean 	0.5609463644214
scalar Network.dyn_peer[236] 	lookupHopsSig:mean 	23.5
scalar Network.dyn_peer[237] 	lookupTimeSig:mean 	1.4571428571429
scalar Network.dyn_peer[237] 	lookupStabilitySig:mean 	0.83651422476396
scalar Network.dyn_peer[237] 	lookupHopsSig:mean 	13.714285714286
scalar Network.dyn_peer[238] 	lookupTimeSig:mean 	1.5
scalar Network.dyn_peer[238] 	lookupStabilitySig:mean 	0.90512588759884
scalar Network.dyn_peer[238] 	lookupHopsSig:mean 	14.111111111111
scalar Network.dyn_peer[239] 	lookupTimeSig:mean 	3
scalar Network.dyn_peer[239] 	lookupStabilitySig:mean 	0.78849548939615
scalar Network.dyn_peer[239] 	lookupHopsSig:mean 	29.25
scalar Network.dyn_peer[240] 	lookupTimeSig:mean 	1.75
scalar Network.dyn_peer[240] 	lookupStabilitySig:mean 	0.5753075350076
scalar Network.dyn_peer[240] 	lookupHopsSig:mean 	16.75
scalar Network.dyn_peer[241] 	lookupTimeSig:mean 	1.44
scalar Network.dyn_peer[241] 	lookupStabilitySig:mean 	0.59831508025527
scalar Network.dyn_peer[241] 	lookupHopsSig:mean 	13.6
scalar Network.dyn_peer[242] 	lookupTimeSig:mean 	1.3666666666667
scalar Network.dyn_peer[242] 	lookupStabilitySig:mean 	0.61009081453085
scalar Network.dyn_peer[242] 	lookupHopsSig:mean 	12.833333333333
scalar Network.dyn_peer[243] 	lookupTimeSig:mean 	2.0166666666667
scalar Network.dyn_peer[243] 	lookupStabilitySig:mean 	0.76402450694392
scalar Network.dyn_peer[243] 	lookupHopsSig:mean 	19.333333333333
scalar Network.dyn_peer[244] 	lookupTimeSig:mean 	1.84
scalar Network.dyn_peer[244] 	lookupStabilitySig:mean 	0.64621434733272
scalar Network.dyn_peer[244] 	lookupHopsSig:mean 	17.6
scalar Network.dyn_peer[245] 	lookupTimeSig:mean 	2.8333333333333
scalar Network.dyn_peer[245] 	lookupStabilitySig:mean 	0.61481480300426
scalar Network.dyn_peer[245] 	lookupHopsSig:mean 	27.666666666667
scalar Network.dyn_peer[246] 	lookupTimeSig:mean 	1.7
scalar Network.dyn_peer[246] 	lookupStabilitySig:mean 	0.75330631797098
scalar Network.dyn_peer[246] 	lookupHopsSig:mean 	16.111111111111
scalar Network.dyn_peer[247] 	lookupTimeSig:mean 	2.9571428571429
scalar Network.dyn_peer[247] 	lookupStabilitySig:mean 	0.95218421239406
scalar Network.dyn_peer[247] 	lookupHopsSig:mean 	28.714285714286
scalar Network.dyn_peer[248] 	lookupTimeSig:mean 	1.3333333333333
scalar Network.dyn_peer[248] 	lookupStabilitySig:mean 	0.68860547927519
scalar Network.dyn_peer[248] 	lookupHopsSig:mean 	12.5
scalar Network.dyn_peer[249] 	lookupTimeSig:mean 	1.575
scalar Network.dyn_peer[249] 	lookupStabilitySig:mean 	0.50966274319217
scalar Network.dyn_peer[249] 	lookupHopsSig:mean 	15
scalar Network.dyn_peer[250] 	lookupTimeSig:mean 	1.4714285714286
scalar Network.dyn_peer[250] 	lookupStabilitySig:mean 	0.69408937011446
scalar Network.dyn_peer[250] 	lookupHopsSig:mean 	13.857142857143
scalar Network.dyn_peer[251] 	lookupTimeSig:mean 	2.6666666666667
scalar Network.dyn_peer[251] 	lookupStabilitySig:mean 	0.77092729881406
scalar Network.dyn_peer[251] 	lookupHopsSig:mean 	26
scalar Network.dyn_peer[252] 	lookupTimeSig:mean 	1.35
scalar Network.dyn_peer[252] 	lookupStabilitySig:mean 	0.77483973838389
scalar Network.dyn_peer[252] 	lookupHopsSig:mean 	12.75
scalar Network.dyn_peer[253] 	lookupTimeSig:mean 	1.64
scalar Network.dyn_peer[253] 	lookupStabilitySig:mean 	0.86478435434401
scalar Network.dyn_peer[253] 	lookupHopsSig:mean 	15.6
scalar Network.dyn_peer[254] 	lookupTimeSig:mean 	2.2
scalar Network.dyn_peer[254] 	lookupStabilitySig:mean 	0.80846596633395
scalar Network.dyn_peer[254] 	lookupHopsSig:mean 	21.333333333333
scalar Network.dyn_peer[255] 	lookupTimeSig:mean 	3.9
scalar Network.dyn_peer[255] 	lookupStabilitySig:mean 	0.77211255580187
scalar Network.dyn_peer[255] 	lookupHopsSig:mean 	38.333333333333
scalar Network.dyn_peer[256] 	lookupTimeSig:mean 	1.3777777777778
scalar Network.dyn_peer[256] 	lookupStabilitySig:mean 	0.79900869908225
scalar Network.dyn_peer[256] 	lookupHopsSig:mean 	12.888888888889
scalar Network.dyn_peer[257] 	lookupTimeSig:mean 	1.5
scalar Network.dyn_peer[257] 	lookupStabilitySig:mean 	0.51499784886837
scalar Network.dyn_peer[257] 	lookupHopsSig:mean 	14.2
scalar Network.dyn_peer[258] 	lookupTimeSig:mean 	1.6636363636364
scalar Network.dyn_peer[258] 	lookupStabilitySig:mean 	0.82612251321023
scalar Network.dyn_peer[258] 	lookupHopsSig:mean 	15.727272727273
scalar Network.dyn_peer[259] 	lookupTimeSig:mean 	1.9
scalar Network.dyn_peer[259] 	lookupStabilitySig:mean 	0.64016904868186
scalar Network.dyn_peer[259] 	lookupHopsSig:mean 	18.25
scalar Network.dyn_peer[260] 	lookupTimeSig:mean 	1.225
scalar Network.dyn_peer[260] 	lookupStabilitySig:mean 	0.59130058996379
scalar Network.dyn_peer[260] 	lookupHopsSig:mean 	11.5
scalar Network.dyn_peer[261] 	lookupTimeSig:mean 	2.1428571428571
scalar Network.dyn_peer[261] 	lookupStabilitySig:mean 	0.78345797716507
scalar Network.dyn_peer[261] 	lookupHopsSig:mean 	20.571428571429
scalar Network.dyn_peer[262] 	lookupTimeSig:mean 	2.92
scalar Network.dyn_peer[262] 	lookupStabilitySig:mean 	0.92444586735219
scalar Network.dyn_peer[262] 	lookupHopsSig:mean 	28.4
scalar Network.dyn_peer[263] 	lookupTimeSig:mean 	1.7
scalar Network.dyn_peer[263] 	lookupStabilitySig:mean 	0.51936252042651
scalar Network.dyn_peer[263] 	lookupHopsSig:mean 	16.25
scalar Network.dyn_peer[264] 	lookupTimeSig:mean 	1.7
scalar Network.dyn_peer[264] 	lookupStabilitySig:mean 	0.72279405221343
scalar Network.dyn_peer[264] 	lookupHopsSig:mean 	16.166666666667
scalar Network.dyn_peer[265] 	lookupTimeSig:mean 	1.8333333333333
scalar Network.dyn_peer[265] 	lookupStabilitySig:mean 	0.71516286457578
scalar Network.dyn_peer[265] 	lookupHopsSig:mean 	17.666666666667
scalar Network.dyn_peer[266] 	lookupTimeSig:mean 	1.8714285714286
scalar Network.dyn_peer[266] 	lookupStabilitySig:mean 	0.8107808620802
scalar Network.dyn_peer[266] 	lookupHopsSig:mean 	17.857142857143
scalar Network.dyn_peer[267] 	lookupTimeSig:mean 	1.35
scalar Network.dyn_peer[267] 	lookupStabilitySig:mean 	0.58172531425953
scalar Network.dyn_peer[267] 	lookupHopsSig:mean 	12.75
scalar Network.dyn_peer[268] 	lookupTimeSig:mean 	1.7
scalar Network.dyn_peer[268] 	lookupStabilitySig:mean 	0.95165073198195
scalar Network.dyn_peer[268] 	lookupHopsSig:mean 	16.076923076923
scalar Network.dyn_peer[269] 	lookupTimeSig:mean 	2.65
scalar Network.dyn_peer[269] 	lookupStabilitySig:mean 	0.65567653998733
scalar Network.dyn_peer[269] 	lookupHopsSig:mean 	26
scalar Network.dyn_peer[270] 	lookupTimeSig:mean 	2.18
scalar Network.dyn_peer[270] 	lookupStabilitySig:mean 	0.62226245775819
scalar Network.dyn_peer[270] 	lookupHopsSig:mean 	21
scalar Network.dyn_peer[271] 	lookupTimeSig:mean 	1.575
scalar Network.dyn_peer[271] 	lookupStabilitySig:mean 	0.77082749269903
scalar Network.dyn_peer[271] 	lookupHopsSig:mean 	14.875
scalar Network.dyn_peer[272] 	lookupTimeSig:mean 	2.0444444444444
scalar Network.dyn_peer[272] 	lookupStabilitySig:mean 	0.79869051753647
scalar Network.dyn_peer[272] 	lookupHopsSig:mean 	19.555555555556
scalar Network.dyn_peer[273] 	lookupTimeSig:mean 	3.55
scalar Network.dyn_peer[273] 	lookupStabilitySig:mean 	0.92485008854419
scalar Network.dyn_peer[273] 	lookupHopsSig:mean 	34.75
scalar Network.dyn_peer[274] 	lookupTimeSig:mean 	2.1571428571429
scalar Network.dyn_peer[274] 	lookupStabilitySig:mean 	0.86670224155699
scalar Network.dyn_peer[274] 	lookupHopsSig:mean 	20.714285714286
scalar Network.dyn_peer[275] 	lookupTimeSig:mean 	1.97
scalar Network.dyn_peer[275] 	lookupStabilitySig:mean 	0.96481327586807
scalar Network.dyn_peer[275] 	lookupHopsSig:mean 	18.8
scalar Network.dyn_peer[276] 	lookupTimeSig:mean 	1.6166666666667
scalar Network.dyn_peer[276] 	lookupStabilitySig:mean 	0.70222108221302
scalar Network.dyn_peer[276] 	lookupHopsSig:mean 	15.333333333333
scalar Network.dyn_peer[277] 	lookupTimeSig:mean 	2.525
scalar Network.dyn_peer[277] 	lookupStabilitySig:mean 	0.87448526825756
scalar Network.dyn_peer[277] 	lookupHopsSig:mean 	24.5
scalar Network.dyn_peer[278] 	lookupTimeSig:mean 	2.3
scalar Network.dyn_peer[278] 	lookupStabilitySig:mean 	0.81568764274319
scalar Network.dyn_peer[278] 	lookupHopsSig:mean 	22.166666666667
scalar Network.dyn_peer[279] 	lookupTimeSig:mean 	2.1875
scalar Network.dyn_peer[279] 	lookupStabilitySig:mean 	0.85270961141214
scalar Network.dyn_peer[279] 	lookupHopsSig:mean 	21
scalar Network.dyn_peer[280] 	lookupTimeSig:mean 	1.5714285714286
scalar Network.dyn_peer[280] 	lookupStabilitySig:mean 	0.8105726697083
scalar Network.dyn_peer[280] 	lookupHopsSig:mean 	14.857142857143
scalar Network.dyn_peer[281] 	lookupTimeSig:mean 	2.5272727272727
scalar Network.dyn_peer[281] 	lookupStabilitySig:mean 	0.94712612185289
scalar Network.dyn_peer[281] 	lookupHopsSig:mean 	24.363636363636
scalar Network.dyn_peer[282] 	lookupTimeSig:mean 	1.325
scalar Network.dyn_peer[282] 	lookupStabilitySig:mean 	0.6153699029237
scalar Network.dyn_peer[282] 	lookupHopsSig:mean 	12.5
scalar Network.dyn_peer[283] 	lookupTimeSig:mean 	0.56
scalar Network.dyn_peer[283] 	lookupStabilitySig:mean 	0.66985492780805
scalar Network.dyn_peer[283] 	lookupHopsSig:mean 	4.8
scalar Network.dyn_peer[284] 	lookupTimeSig:mean 	2.8
scalar Network.dyn_peer[284] 	lookupStabilitySig:mean 	0.6371555502216
scalar Network.dyn_peer[284] 	lookupHopsSig:mean 	27.333333333333
scalar Network.dyn_peer[285] 	lookupTimeSig:mean 	2.2
scalar Network.dyn_peer[285] 	lookupStabilitySig:mean 	0.55052264779806
scalar Network.dyn_peer[285] 	lookupHopsSig:mean 	21.5
scalar Network.dyn_peer[286] 	lookupTimeSig:mean 	1.5142857142857
scalar Network.dyn_peer[286] 	lookupStabilitySig:mean 	0.63707706558385
scalar Network.dyn_peer[286] 	lookupHopsSig:mean 	14.285714285714
scalar Network.dyn_peer[287] 	lookupTimeSig:mean 	1.1
scalar Network.dyn_peer[287] 	lookupStabilitySig:mean 	0.42474559818705
scalar Network.dyn_peer[287] 	lookupHopsSig:mean 	10.333333333333
scalar Network.dyn_peer[288] 	lookupTimeSig:mean 	1.6875
scalar Network.dyn_peer[288] 	lookupStabilitySig:mean 	0.88953954051249
scalar Network.dyn_peer[288] 	lookupHopsSig:mean 	16
scalar Network.dyn_peer[289] 	lookupTimeSig:mean 	2.55
scalar Network.dyn_peer[289] 	lookupStabilitySig:mean 	0.78760873782448
scalar Network.dyn_peer[289] 	lookupHopsSig:mean 	24.625
scalar Network.dyn_peer[290] 	lookupTimeSig:mean 	2.14
scalar Network.dyn_peer[290] 	lookupStabilitySig:mean 	0.75880475454032
scalar Network.dyn_peer[290] 	lookupHopsSig:mean 	20.6
scalar Network.dyn_peer[291] 	lookupTimeSig:mean 	1.9333333333333
scalar Network.dyn_peer[291] 	lookupStabilitySig:mean 	0.47495500246684
scalar Network.dyn_peer[291] 	lookupHopsSig:mean 	18.666666666667
scalar Network.dyn_peer[292] 	lookupTimeSig:mean 	2.25
scalar Network.dyn_peer[292] 	lookupStabilitySig:mean 	0.47361110895872
scalar Network.dyn_peer[292] 	lookupHopsSig:mean 	22
scalar Network.dyn_peer[293] 	lookupTimeSig:mean 	1.6625
scalar Network.dyn_peer[293] 	lookupStabilitySig:mean 	0.9022519091377
scalar Network.dyn_peer[293] 	lookupHopsSig:mean 	15.75
scalar Network.dyn_peer[294] 	lookupTimeSig:mean 	1.375
scalar Network.dyn_peer[294] 	lookupStabilitySig:mean 	0.57962371222675
scalar Network.dyn_peer[294] 	lookupHopsSig:mean 	13
scalar Network.dyn_peer[295] 	lookupTimeSig:mean 	2.8
scalar Network.dyn_peer[295] 	lookupStabilitySig:mean 	0.28609344363213
scalar Network.dyn_peer[295] 	lookupHopsSig:mean 	27.5
scalar Network.dyn_peer[296] 	lookupTimeSig:mean 	2.275
scalar Network.dyn_peer[296] 	lookupStabilitySig:mean 	0.50025671627373
scalar Network.dyn_peer[296] 	lookupHopsSig:mean 	22
scalar Network.dyn_peer[297] 	lookupTimeSig:mean 	1.78
scalar Network.dyn_peer[297] 	lookupStabilitySig:mean 	0.65082791447639
scalar Network.dyn_peer[297] 	lookupHopsSig:mean 	17
scalar Network.dyn_peer[298] 	lookupTimeSig:mean 	2.38
scalar Network.dyn_peer[298] 	lookupStabilitySig:mean 	0.87950501479208
scalar Network.dyn_peer[298] 	lookupHopsSig:mean 	23
scalar Network.dyn_peer[299] 	lookupTimeSig:mean 	1.6666666666667
scalar Network.dyn_peer[299] 	lookupStabilitySig:mean 	0.73576166954202
scalar Network.dyn_peer[299] 	lookupHopsSig:mean 	15.833333333333
scalar Network.dyn_peer[300] 	lookupTimeSig:mean 	3.2333333333333
scalar Network.dyn_peer[300] 	lookupStabilitySig:mean 	0.92858129677673
scalar Network.dyn_peer[300] 	lookupHopsSig:mean 	31.444444444444
scalar Network.dyn_peer[301] 	lookupTimeSig:mean 	0.875
scalar Network.dyn_peer[301] 	lookupStabilitySig:mean 	0.44491758197546
scalar Network.dyn_peer[301] 	lookupHopsSig:mean 	8
scalar Network.dyn_peer[302] 	lookupTimeSig:mean 	1.05
scalar Network.dyn_peer[302] 	lookupStabilitySig:mean 	0.25000001490116
scalar Network.dyn_peer[302] 	lookupHopsSig:mean 	10
scalar Network.dyn_peer[303] 	lookupTimeSig:mean 	2.7833333333333
scalar Network.dyn_peer[303] 	lookupStabilitySig:mean 	0.9392972777908
scalar Network.dyn_peer[303] 	lookupHopsSig:mean 	27
scalar Network.dyn_peer[304] 	lookupTimeSig:mean 	1.9666666666667
scalar Network.dyn_peer[304] 	lookupStabilitySig:mean 	0.555645758907
scalar Network.dyn_peer[304] 	lookupHopsSig:mean 	19
scalar Network.dyn_peer[305] 	lookupTimeSig:mean 	1.2428571428571
scalar Network.dyn_peer[305] 	lookupStabilitySig:mean 	0.67035367925252
scalar Network.dyn_peer[305] 	lookupHopsSig:mean 	11.571428571429
scalar Network.dyn_peer[306] 	lookupTimeSig:mean 	1.125
scalar Network.dyn_peer[306] 	lookupStabilitySig:mean 	0.56879179924726
scalar Network.dyn_peer[306] 	lookupHopsSig:mean 	10.5
scalar Network.dyn_peer[307] 	lookupTimeSig:mean 	2.08
scalar Network.dyn_peer[307] 	lookupStabilitySig:mean 	0.65497968196869
scalar Network.dyn_peer[307] 	lookupHopsSig:mean 	20
scalar Network.dyn_peer[308] 	lookupTimeSig:mean 	1.8333333333333
scalar Network.dyn_peer[308] 	lookupStabilitySig:mean 	0.68572992583116
scalar Network.dyn_peer[308] 	lookupHopsSig:mean 	17.5
scalar Network.dyn_peer[309] 	lookupTimeSig:mean 	1.4375
scalar Network.dyn_peer[309] 	lookupStabilitySig:mean 	0.76915227435529
scalar Network.dyn_peer[309] 	lookupHopsSig:mean 	13.5
scalar Network.dyn_peer[310] 	lookupTimeSig:mean 	3.2
scalar Network.dyn_peer[310] 	lookupStabilitySig:mean 	0.63236487656832
scalar Network.dyn_peer[310] 	lookupHopsSig:mean 	31.5
scalar Network.dyn_peer[311] 	lookupTimeSig:mean 	2.8
scalar Network.dyn_peer[311] 	lookupStabilitySig:mean 	0.46682541072369
scalar Network.dyn_peer[311] 	lookupHopsSig:mean 	27.333333333333
scalar Network.dyn_peer[312] 	lookupTimeSig:mean 	1.8857142857143
scalar Network.dyn_peer[312] 	lookupStabilitySig:mean 	0.80972685106099
scalar Network.dyn_peer[312] 	lookupHopsSig:mean 	18
scalar Network.dyn_peer[313] 	lookupTimeSig:mean 	1.14
scalar Network.dyn_peer[313] 	lookupStabilitySig:mean 	0.61504610329866
scalar Network.dyn_peer[313] 	lookupHopsSig:mean 	10.6
scalar Network.dyn_peer[314] 	lookupTimeSig:mean 	1.5166666666667
scalar Network.dyn_peer[314] 	lookupStabilitySig:mean 	0.64794862022003
scalar Network.dyn_peer[314] 	lookupHopsSig:mean 	14.333333333333
scalar Network.dyn_peer[315] 	lookupTimeSig:mean 	1.8333333333333
scalar Network.dyn_peer[315] 	lookupStabilitySig:mean 	0.72633116164555
scalar Network.dyn_peer[315] 	lookupHopsSig:mean 	17.5
scalar Network.dyn_peer[316] 	lookupTimeSig:mean 	2.0428571428571
scalar Network.dyn_peer[316] 	lookupStabilitySig:mean 	0.89841510754611
scalar Network.dyn_peer[316] 	lookupHopsSig:mean 	19.571428571429
scalar Network.dyn_peer[317] 	lookupTimeSig:mean 	1.42
scalar Network.dyn_peer[317] 	lookupStabilitySig:mean 	0.61467585042119
scalar Network.dyn_peer[317] 	lookupHopsSig:mean 	13.4
scalar Network.dyn_peer[318] 	lookupTimeSig:mean 	0.9
scalar Network.dyn_peer[318] 	lookupStabilitySig:mean 	0.78130506227414
scalar Network.dyn_peer[318] 	lookupHopsSig:mean 	8.1111111111111
scalar Network.dyn_peer[319] 	lookupTimeSig:mean 	1.14375
scalar Network.dyn_peer[319] 	lookupStabilitySig:mean 	0.85593346708629
scalar Network.dyn_peer[319] 	lookupHopsSig:mean 	10.5
scalar Network.dyn_peer[320] 	lookupTimeSig:mean 	2.1833333333333
scalar Network.dyn_peer[320] 	lookupStabilitySig:mean 	0.72248807176948
scalar Network.dyn_peer[320] 	lookupHopsSig:mean 	21
scalar Network.dyn_peer[321] 	lookupTimeSig:mean 	2.5
scalar Network.dyn_peer[321] 	lookupStabilitySig:mean 	0.68230135490497
scalar Network.dyn_peer[321] 	lookupHopsSig:mean 	24.333333333333
scalar Network.dyn_peer[322] 	lookupTimeSig:mean 	2.2888888888889
scalar Network.dyn_peer[322] 	lookupStabilitySig:mean 	0.94963680963135
scalar Network.dyn_peer[322] 	lookupHopsSig:mean 	22
scalar Network.dyn_peer[323] 	lookupTimeSig:mean 	2.56
scalar Network.dyn_peer[323] 	lookupStabilitySig:mean 	0.85527237951756
scalar Network.dyn_peer[323] 	lookupHopsSig:mean 	24.8
scalar Network.dyn_peer[324] 	lookupTimeSig:mean 	2.2166666666667
scalar Network.dyn_peer[324] 	lookupStabilitySig:mean 	0.77943539867798
scalar Network.dyn_peer[324] 	lookupHopsSig:mean 	21.333333333333
scalar Network.dyn_peer[325] 	lookupTimeSig:mean 	2.22
scalar Network.dyn_peer[325] 	lookupStabilitySig:mean 	0.67836776450276
scalar Network.dyn_peer[325] 	lookupHopsSig:mean 	21.4
scalar Network.dyn_peer[326] 	lookupTimeSig:mean 	1.01
scalar Network.dyn_peer[326] 	lookupStabilitySig:mean 	0.83570261541754
scalar Network.dyn_peer[326] 	lookupHopsSig:mean 	9.2
scalar Network.dyn_peer[327] 	lookupTimeSig:mean 	2.75
scalar Network.dyn_peer[327] 	lookupStabilitySig:mean 	0.84043967258185
scalar Network.dyn_peer[327] 	lookupHopsSig:mean 	26.75
scalar Network.dyn_peer[328] 	lookupTimeSig:mean 	2.2333333333333
scalar Network.dyn_peer[328] 	lookupStabilitySig:mean 	0.57555554807186
scalar Network.dyn_peer[328] 	lookupHopsSig:mean 	21.666666666667
scalar Network.dyn_peer[329] 	lookupTimeSig:mean 	1.7363636363636
scalar Network.dyn_peer[329] 	lookupStabilitySig:mean 	0.9604616466571
scalar Network.dyn_peer[329] 	lookupHopsSig:mean 	16.454545454545
scalar Network.dyn_peer[330] 	lookupTimeSig:mean 	1.5222222222222
scalar Network.dyn_peer[330] 	lookupStabilitySig:mean 	0.89958002733895
scalar Network.dyn_peer[330] 	lookupHopsSig:mean 	14.333333333333
scalar Network.dyn_peer[331] 	lookupTimeSig:mean 	4
scalar Network.dyn_peer[331] 	lookupStabilitySig:mean 	0.92468885215931
scalar Network.dyn_peer[331] 	lookupHopsSig:mean 	39.25
scalar Network.dyn_peer[332] 	lookupTimeSig:mean 	1.55
scalar Network.dyn_peer[332] 	lookupStabilitySig:mean 	0.21388365328312
scalar Network.dyn_peer[332] 	lookupHopsSig:mean 	15
scalar Network.dyn_peer[333] 	lookupTimeSig:mean 	1.5333333333333
scalar Network.dyn_peer[333] 	lookupStabilitySig:mean 	0.80399092069517
scalar Network.dyn_peer[333] 	lookupHopsSig:mean 	14.444444444444
scalar Network.dyn_peer[334] 	lookupTimeSig:mean 	1.8285714285714
scalar Network.dyn_peer[334] 	lookupStabilitySig:mean 	0.90173542333235
scalar Network.dyn_peer[334] 	lookupHopsSig:mean 	17.428571428571
scalar Network.dyn_peer[335] 	lookupTimeSig:mean 	1.6153846153846
scalar Network.dyn_peer[335] 	lookupStabilitySig:mean 	0.87433044547932
scalar Network.dyn_peer[335] 	lookupHopsSig:mean 	15.230769230769
scalar Network.dyn_peer[336] 	lookupTimeSig:mean 	2.1333333333333
scalar Network.dyn_peer[336] 	lookupStabilitySig:mean 	0.77419693267439
scalar Network.dyn_peer[336] 	lookupHopsSig:mean 	20.5
scalar Network.dyn_peer[337] 	lookupTimeSig:mean 	1.8
scalar Network.dyn_peer[337] 	lookupStabilitySig:mean 	0.78216663654894
scalar Network.dyn_peer[337] 	lookupHopsSig:mean 	17.166666666667
scalar Network.dyn_peer[338] 	lookupTimeSig:mean 	2.525
scalar Network.dyn_peer[338] 	lookupStabilitySig:mean 	0.73268915945664
scalar Network.dyn_peer[338] 	lookupHopsSig:mean 	24.5
scalar Network.dyn_peer[339] 	lookupTimeSig:mean 	2
scalar Network.dyn_peer[339] 	lookupStabilitySig:mean 	0.64419785421342
scalar Network.dyn_peer[339] 	lookupHopsSig:mean 	19.25
scalar Network.dyn_peer[340] 	lookupTimeSig:mean 	2.8875
scalar Network.dyn_peer[340] 	lookupStabilitySig:mean 	0.95540062012151
scalar Network.dyn_peer[340] 	lookupHopsSig:mean 	28
scalar Network.dyn_peer[341] 	lookupTimeSig:mean 	1.2
scalar Network.dyn_peer[341] 	lookupStabilitySig:mean 	0.63189369440079
scalar Network.dyn_peer[341] 	lookupHopsSig:mean 	11.2
scalar Network.dyn_peer[342] 	lookupTimeSig:mean 	1.6142857142857
scalar Network.dyn_peer[342] 	lookupStabilitySig:mean 	0.74689616179759
scalar Network.dyn_peer[342] 	lookupHopsSig:mean 	15.285714285714
scalar Network.dyn_peer[343] 	lookupTimeSig:mean 	2.12
scalar Network.dyn_peer[343] 	lookupStabilitySig:mean 	0.6625719666481
scalar Network.dyn_peer[343] 	lookupHopsSig:mean 	20.4
scalar Network.dyn_peer[344] 	lookupTimeSig:mean 	1.8
scalar Network.dyn_peer[344] 	lookupStabilitySig:mean 	0.46423096458117
scalar Network.dyn_peer[344] 	lookupHopsSig:mean 	17.333333333333
scalar Network.dyn_peer[345] 	lookupTimeSig:mean 	1.6090909090909
scalar Network.dyn_peer[345] 	lookupStabilitySig:mean 	0.88763258443214
scalar Network.dyn_peer[345] 	lookupHopsSig:mean 	15.181818181818
scalar Network.dyn_peer[346] 	lookupTimeSig:mean 	1.98
scalar Network.dyn_peer[346] 	lookupStabilitySig:mean 	0.74867770783603
scalar Network.dyn_peer[346] 	lookupHopsSig:mean 	19
scalar Network.dyn_peer[347] 	lookupTimeSig:mean 	2.0666666666667
scalar Network.dyn_peer[347] 	lookupStabilitySig:mean 	0.76010375780364
scalar Network.dyn_peer[347] 	lookupHopsSig:mean 	19.833333333333
scalar Network.dyn_peer[348] 	lookupTimeSig:mean 	3
scalar Network.dyn_peer[348] 	lookupStabilitySig:mean 	0.51296516880393
scalar Network.dyn_peer[348] 	lookupHopsSig:mean 	29.333333333333
scalar Network.dyn_peer[349] 	lookupTimeSig:mean 	2.0125
scalar Network.dyn_peer[349] 	lookupStabilitySig:mean 	0.90174822026165
scalar Network.dyn_peer[349] 	lookupHopsSig:mean 	19.25
scalar Network.dyn_peer[350] 	lookupTimeSig:mean 	2.2
scalar Network.dyn_peer[350] 	lookupStabilitySig:mean 	0.52852958192428
scalar Network.dyn_peer[350] 	lookupHopsSig:mean 	21.333333333333
scalar Network.dyn_peer[351] 	lookupTimeSig:mean 	1.7888888888889
scalar Network.dyn_peer[351] 	lookupStabilitySig:mean 	0.80139321026703
scalar Network.dyn_peer[351] 	lookupHopsSig:mean 	17
scalar Network.dyn_peer[352] 	lookupTimeSig:mean 	1.8
scalar Network.dyn_peer[352] 	lookupStabilitySig:mean 	0.9499732889235
scalar Network.dyn_peer[352] 	lookupHopsSig:mean 	17.111111111111
scalar Network.dyn_peer[353] 	lookupTimeSig:mean 	1.4666666666667
scalar Network.dyn_peer[353] 	lookupStabilitySig:mean 	0.42988505959511
scalar Network.dyn_peer[353] 	lookupHopsSig:mean 	14
scalar Network.dyn_peer[354] 	lookupTimeSig:mean 	2.04
scalar Network.dyn_peer[354] 	lookupStabilitySig:mean 	0.70008714273572
scalar Network.dyn_peer[354] 	lookupHopsSig:mean 	19.6
scalar Network.dyn_peer[355] 	lookupTimeSig:mean 	1.5375
scalar Network.dyn_peer[355] 	lookupStabilitySig:mean 	0.76282423920929
scalar Network.dyn_peer[355] 	lookupHopsSig:mean 	14.5
scalar Network.dyn_peer[356] 	lookupTimeSig:mean 	3.28
scalar Network.dyn_peer[356] 	lookupStabilitySig:mean 	0.80342787951231
scalar Network.dyn_peer[356] 	lookupHopsSig:mean 	32
scalar Network.dyn_peer[357] 	lookupTimeSig:mean 	2.4
scalar Network.dyn_peer[357] 	lookupStabilitySig:mean 	0.69785519428551
scalar Network.dyn_peer[357] 	lookupHopsSig:mean 	23.2
scalar Network.dyn_peer[358] 	lookupTimeSig:mean 	1.3615384615385
scalar Network.dyn_peer[358] 	lookupStabilitySig:mean 	0.94045447146233
scalar Network.dyn_peer[358] 	lookupHopsSig:mean 	12.692307692308
scalar Network.dyn_peer[359] 	lookupTimeSig:mean 	5.25
scalar Network.dyn_peer[359] 	lookupStabilitySig:mean 	0.3150197416544
scalar Network.dyn_peer[359] 	lookupHopsSig:mean 	52
scalar Network.dyn_peer[360] 	lookupTimeSig:mean 	1.2714285714286
scalar Network.dyn_peer[360] 	lookupStabilitySig:mean 	0.7382980015661
scalar Network.dyn_peer[360] 	lookupHopsSig:mean 	11.857142857143
scalar Network.dyn_peer[361] 	lookupTimeSig:mean 	1.3272727272727
scalar Network.dyn_peer[361] 	lookupStabilitySig:mean 	0.83927196340466
scalar Network.dyn_peer[361] 	lookupHopsSig:mean 	12.363636363636
scalar Network.dyn_peer[362] 	lookupTimeSig:mean 	1.375
scalar Network.dyn_peer[362] 	lookupStabilitySig:mean 	0.90901818906423
scalar Network.dyn_peer[362] 	lookupHopsSig:mean 	12.875
scalar Network.dyn_peer[363] 	lookupTimeSig:mean 	1.7
scalar Network.dyn_peer[363] 	lookupStabilitySig:mean 	0.6875154286623
scalar Network.dyn_peer[363] 	lookupHopsSig:mean 	16.2
scalar Network.dyn_peer[364] 	lookupTimeSig:mean 	1.04
scalar Network.dyn_peer[364] 	lookupStabilitySig:mean 	0.64580395668745
scalar Network.dyn_peer[364] 	lookupHopsSig:mean 	9.6
scalar Network.dyn_peer[365] 	lookupTimeSig:mean 	1.8
scalar Network.dyn_peer[365] 	lookupStabilitySig:mean 	0.71996453652779
scalar Network.dyn_peer[365] 	lookupHopsSig:mean 	17.333333333333
scalar Network.dyn_peer[366] 	lookupTimeSig:mean 	2.1833333333333
scalar Network.dyn_peer[366] 	lookupStabilitySig:mean 	0.78091898653656
scalar Network.dyn_peer[366] 	lookupHopsSig:mean 	21
scalar Network.dyn_peer[367] 	lookupTimeSig:mean 	2.0142857142857
scalar Network.dyn_peer[367] 	lookupStabilitySig:mean 	0.93331639016313
scalar Network.dyn_peer[367] 	lookupHopsSig:mean 	19.285714285714
scalar Network.dyn_peer[368] 	lookupTimeSig:mean 	2.7
scalar Network.dyn_peer[368] 	lookupStabilitySig:mean 	0.47652552028497
scalar Network.dyn_peer[368] 	lookupHopsSig:mean 	26.333333333333
scalar Network.dyn_peer[369] 	lookupTimeSig:mean 	1.75
scalar Network.dyn_peer[369] 	lookupStabilitySig:mean 	0.88327729143202
scalar Network.dyn_peer[369] 	lookupHopsSig:mean 	16.625
scalar Network.dyn_peer[370] 	lookupTimeSig:mean 	2.2714285714286
scalar Network.dyn_peer[370] 	lookupStabilitySig:mean 	0.94271558809227
scalar Network.dyn_peer[370] 	lookupHopsSig:mean 	21.857142857143
scalar Network.dyn_peer[371] 	lookupTimeSig:mean 	1.775
scalar Network.dyn_peer[371] 	lookupStabilitySig:mean 	0.56747331283987
scalar Network.dyn_peer[371] 	lookupHopsSig:mean 	17
scalar Network.dyn_peer[372] 	lookupTimeSig:mean 	1
scalar Network.dyn_peer[372] 	lookupStabilitySig:mean 	0.66654870919883
scalar Network.dyn_peer[372] 	lookupHopsSig:mean 	9.2
scalar Network.dyn_peer[373] 	lookupTimeSig:mean 	1.3166666666667
scalar Network.dyn_peer[373] 	lookupStabilitySig:mean 	0.87444252707064
scalar Network.dyn_peer[373] 	lookupHopsSig:mean 	12.333333333333
scalar Network.dyn_peer[374] 	lookupTimeSig:mean 	1.6875
scalar Network.dyn_peer[374] 	lookupStabilitySig:mean 	0.76273530733306
scalar Network.dyn_peer[374] 	lookupHopsSig:mean 	16
scalar Network.dyn_peer[375] 	lookupTimeSig:mean 	2.125
scalar Network.dyn_peer[375] 	lookupStabilitySig:mean 	0.63668386079371
scalar Network.dyn_peer[375] 	lookupHopsSig:mean 	20.5
scalar Network.dyn_peer[376] 	lookupTimeSig:mean 	1.9714285714286
scalar Network.dyn_peer[376] 	lookupStabilitySig:mean 	0.88865027057805
scalar Network.dyn_peer[376] 	lookupHopsSig:mean 	18.857142857143
scalar Network.dyn_peer[377] 	lookupTimeSig:mean 	2.75
scalar Network.dyn_peer[377] 	lookupStabilitySig:mean 	0.2801843136549
scalar Network.dyn_peer[377] 	lookupHopsSig:mean 	27
scalar Network.dyn_peer[378] 	lookupTimeSig:mean 	1.4714285714286
scalar Network.dyn_peer[378] 	lookupStabilitySig:mean 	0.80435091603015
scalar Network.dyn_peer[378] 	lookupHopsSig:mean 	13.857142857143
scalar Network.dyn_peer[379] 	lookupTimeSig:mean 	2.5333333333333
scalar Network.dyn_peer[379] 	lookupStabilitySig:mean 	0.94822788600706
scalar Network.dyn_peer[379] 	lookupHopsSig:mean 	24.444444444444
scalar Network.dyn_peer[380] 	lookupTimeSig:mean 	3.18
scalar Network.dyn_peer[380] 	lookupStabilitySig:mean 	0.92743716277182
scalar Network.dyn_peer[380] 	lookupHopsSig:mean 	31
scalar Network.dyn_peer[381] 	lookupTimeSig:mean 	1.73
scalar Network.dyn_peer[381] 	lookupStabilitySig:mean 	0.88521261624992
scalar Network.dyn_peer[381] 	lookupHopsSig:mean 	16.4
scalar Network.dyn_peer[382] 	lookupTimeSig:mean 	1.6166666666667
scalar Network.dyn_peer[382] 	lookupStabilitySig:mean 	0.84529515689549
scalar Network.dyn_peer[382] 	lookupHopsSig:mean 	15.25
scalar Network.dyn_peer[383] 	lookupTimeSig:mean 	2.32
scalar Network.dyn_peer[383] 	lookupStabilitySig:mean 	0.87295779585838
scalar Network.dyn_peer[383] 	lookupHopsSig:mean 	22.4
scalar Network.dyn_peer[384] 	lookupTimeSig:mean 	1.4428571428571
scalar Network.dyn_peer[384] 	lookupStabilitySig:mean 	0.75783432115402
scalar Network.dyn_peer[384] 	lookupHopsSig:mean 	13.571428571429
scalar Network.dyn_peer[385] 	lookupTimeSig:mean 	0.975
scalar Network.dyn_peer[385] 	lookupStabilitySig:mean 	0.77122027380392
scalar Network.dyn_peer[385] 	lookupHopsSig:mean 	8.875
scalar Network.dyn_peer[386] 	lookupTimeSig:mean 	2.5428571428571
scalar Network.dyn_peer[386] 	lookupStabilitySig:mean 	0.84546054101416
scalar Network.dyn_peer[386] 	lookupHopsSig:mean 	24.571428571429
scalar Network.dyn_peer[387] 	lookupTimeSig:mean 	1.9
scalar Network.dyn_peer[387] 	lookupStabilitySig:mean 	0.6802406114127
scalar Network.dyn_peer[387] 	lookupHopsSig:mean 	18.142857142857
scalar Network.dyn_peer[388] 	lookupTimeSig:mean 	1.6
scalar Network.dyn_peer[388] 	lookupStabilitySig:mean 	0.53599023222923
scalar Network.dyn_peer[388] 	lookupHopsSig:mean 	15.2
scalar Network.dyn_peer[389] 	lookupTimeSig:mean 	0.825
scalar Network.dyn_peer[389] 	lookupStabilitySig:mean 	0.60586477909237
scalar Network.dyn_peer[389] 	lookupHopsSig:mean 	7.5
scalar Network.dyn_peer[390] 	lookupTimeSig:mean 	2.6166666666667
scalar Network.dyn_peer[390] 	lookupStabilitySig:mean 	0.88898784915606
scalar Network.dyn_peer[390] 	lookupHopsSig:mean 	25.333333333333
scalar Network.dyn_peer[391] 	lookupTimeSig:mean 	2.1666666666667
scalar Network.dyn_peer[391] 	lookupStabilitySig:mean 	0.75956266839057
scalar Network.dyn_peer[391] 	lookupHopsSig:mean 	20.833333333333
scalar Network.dyn_peer[392] 	lookupTimeSig:mean 	2.7333333333333
scalar Network.dyn_peer[392] 	lookupStabilitySig:mean 	0.79807881265879
scalar Network.dyn_peer[392] 	lookupHopsSig:mean 	26.666666666667
scalar Network.dyn_peer[393] 	lookupTimeSig:mean 	2.48
scalar Network.dyn_peer[393] 	lookupStabilitySig:mean 	0.7029055185616
scalar Network.dyn_peer[393] 	lookupHopsSig:mean 	24
scalar Network.dyn_peer[394] 	lookupTimeSig:mean 	3.45
scalar Network.dyn_peer[394] 	lookupStabilitySig:mean 	0.90307760052383
scalar Network.dyn_peer[394] 	lookupHopsSig:mean 	33.75
scalar Network.dyn_peer[395] 	lookupTimeSig:mean 	1.1666666666667
scalar Network.dyn_peer[395] 	lookupStabilitySig:mean 	0.51211007436117
scalar Network.dyn_peer[395] 	lookupHopsSig:mean 	11
scalar Network.dyn_peer[396] 	lookupTimeSig:mean 	4.4666666666667
scalar Network.dyn_peer[396] 	lookupStabilitySig:mean 	0.78524107734362
scalar Network.dyn_peer[396] 	lookupHopsSig:mean 	44
scalar Network.dyn_peer[397] 	lookupTimeSig:mean 	2.375
scalar Network.dyn_peer[397] 	lookupStabilitySig:mean 	0.84287681081332
scalar Network.dyn_peer[397] 	lookupHopsSig:mean 	23
scalar Network.dyn_peer[398] 	lookupTimeSig:mean 	2.625
scalar Network.dyn_peer[398] 	lookupStabilitySig:mean 	0.80805038148537
scalar Network.dyn_peer[398] 	lookupHopsSig:mean 	25.5
scalar Network.dyn_peer[399] 	lookupTimeSig:mean 	2.4333333333333
scalar Network.dyn_peer[399] 	lookupStabilitySig:mean 	0.56151679654916
scalar Network.dyn_peer[399] 	lookupHopsSig:mean 	23.666666666667
scalar Network.dyn_peer[400] 	lookupTimeSig:mean 	0.6
scalar Network.dyn_peer[400] 	lookupStabilitySig:mean 	0.58653845265508
scalar Network.dyn_peer[400] 	lookupHopsSig:mean 	5.25
scalar Network.dyn_peer[401] 	lookupTimeSig:mean 	1.44
scalar Network.dyn_peer[401] 	lookupStabilitySig:mean 	0.67674817852676
scalar Network.dyn_peer[401] 	lookupHopsSig:mean 	13.6
scalar Network.dyn_peer[402] 	lookupTimeSig:mean 	1.0833333333333
scalar Network.dyn_peer[402] 	lookupStabilitySig:mean 	0.84031079895794
scalar Network.dyn_peer[402] 	lookupHopsSig:mean 	10
scalar Network.dyn_peer[403] 	lookupTimeSig:mean 	2.48
scalar Network.dyn_peer[403] 	lookupStabilitySig:mean 	0.72489921236411
scalar Network.dyn_peer[403] 	lookupHopsSig:mean 	24
scalar Network.dyn_peer[404] 	lookupTimeSig:mean 	2.6375
scalar Network.dyn_peer[404] 	lookupStabilitySig:mean 	0.9317638410721
scalar Network.dyn_peer[404] 	lookupHopsSig:mean 	25.5
scalar Network.dyn_peer[405] 	lookupTimeSig:mean 	1.8
scalar Network.dyn_peer[405] 	lookupStabilitySig:mean 	0.35271877547105
scalar Network.dyn_peer[405] 	lookupHopsSig:mean 	17.333333333333
scalar Network.dyn_peer[406] 	lookupTimeSig:mean 	3.8
scalar Network.dyn_peer[406] 	lookupStabilitySig:mean 	0.57854376733303
scalar Network.dyn_peer[406] 	lookupHopsSig:mean 	37.5
scalar Network.dyn_peer[407] 	lookupTimeSig:mean 	1.2142857142857
scalar Network.dyn_peer[407] 	lookupStabilitySig:mean 	0.84636935831181
scalar Network.dyn_peer[407] 	lookupHopsSig:mean 	11.285714285714
scalar Network.dyn_peer[408] 	lookupTimeSig:mean 	1.55
scalar Network.dyn_peer[408] 	lookupStabilitySig:mean 	0.56562994047999
scalar Network.dyn_peer[408] 	lookupHopsSig:mean 	14.75
scalar Network.dyn_peer[409] 	lookupTimeSig:mean 	1.7454545454545
scalar Network.dyn_peer[409] 	lookupStabilitySig:mean 	0.81496433083984
scalar Network.dyn_peer[409] 	lookupHopsSig:mean 	16.545454545455
scalar Network.dyn_peer[410] 	lookupTimeSig:mean 	1.4142857142857
scalar Network.dyn_peer[410] 	lookupStabilitySig:mean 	0.91350045613945
scalar Network.dyn_peer[410] 	lookupHopsSig:mean 	13.285714285714
scalar Network.dyn_peer[411] 	lookupTimeSig:mean 	1.44
scalar Network.dyn_peer[411] 	lookupStabilitySig:mean 	0.79188924189657
scalar Network.dyn_peer[411] 	lookupHopsSig:mean 	13.6
scalar Network.dyn_peer[412] 	lookupTimeSig:mean 	1.4142857142857
scalar Network.dyn_peer[412] 	lookupStabilitySig:mean 	0.7638929305332
scalar Network.dyn_peer[412] 	lookupHopsSig:mean 	13.285714285714
scalar Network.dyn_peer[413] 	lookupTimeSig:mean 	1.525
scalar Network.dyn_peer[413] 	lookupStabilitySig:mean 	0.62609506957233
scalar Network.dyn_peer[413] 	lookupHopsSig:mean 	14.5
scalar Network.dyn_peer[414] 	lookupTimeSig:mean 	2.46
scalar Network.dyn_peer[414] 	lookupStabilitySig:mean 	0.70963029265404
scalar Network.dyn_peer[414] 	lookupHopsSig:mean 	23.8
scalar Network.dyn_peer[415] 	lookupTimeSig:mean 	1.9
scalar Network.dyn_peer[415] 	lookupStabilitySig:mean 	0.94862797541114
scalar Network.dyn_peer[415] 	lookupHopsSig:mean 	18.076923076923
scalar Network.dyn_peer[416] 	lookupTimeSig:mean 	1.4153846153846
scalar Network.dyn_peer[416] 	lookupStabilitySig:mean 	0.87303428187107
scalar Network.dyn_peer[416] 	lookupHopsSig:mean 	13.230769230769
scalar Network.dyn_peer[417] 	lookupTimeSig:mean 	1.95
scalar Network.dyn_peer[417] 	lookupStabilitySig:mean 	0.78423338290304
scalar Network.dyn_peer[417] 	lookupHopsSig:mean 	18.666666666667
scalar Network.dyn_peer[418] 	lookupTimeSig:mean 	1.3272727272727
scalar Network.dyn_peer[418] 	lookupStabilitySig:mean 	0.83659769734368
scalar Network.dyn_peer[418] 	lookupHopsSig:mean 	12.363636363636
scalar Network.dyn_peer[419] 	lookupTimeSig:mean 	1.72
scalar Network.dyn_peer[419] 	lookupStabilitySig:mean 	0.79477516114712
scalar Network.dyn_peer[419] 	lookupHopsSig:mean 	16.4
[...]
scalar Network.dyn_peer[896] 	lookupTimeSig:mean 	2.0666666666667
scalar Network.dyn_peer[896] 	lookupStabilitySig:mean 	0.89701077458449
scalar Network.dyn_peer[896] 	lookupHopsSig:mean 	19.75
scalar Network.dyn_peer[897] 	lookupTimeSig:mean 	1.3166666666667
scalar Network.dyn_peer[897] 	lookupStabilitySig:mean 	0.92094942562593
scalar Network.dyn_peer[897] 	lookupHopsSig:mean 	12.25
scalar Network.dyn_peer[898] 	lookupTimeSig:mean 	2.3
scalar Network.dyn_peer[898] 	lookupStabilitySig:mean 	0.9293739857773
scalar Network.dyn_peer[898] 	lookupHopsSig:mean 	22.166666666667
scalar Network.dyn_peer[899] 	lookupTimeSig:mean 	1.99
scalar Network.dyn_peer[899] 	lookupStabilitySig:mean 	0.94543855097145
scalar Network.dyn_peer[899] 	lookupHopsSig:mean 	19
scalar Network.dyn_peer[900] 	lookupTimeSig:mean 	1.6285714285714
scalar Network.dyn_peer[900] 	lookupStabilitySig:mean 	0.8685485465186
scalar Network.dyn_peer[900] 	lookupHopsSig:mean 	15.428571428571
scalar Network.dyn_peer[901] 	lookupTimeSig:mean 	1.375
scalar Network.dyn_peer[901] 	lookupStabilitySig:mean 	0.6815673802048
scalar Network.dyn_peer[901] 	lookupHopsSig:mean 	13
scalar Network.dyn_peer[902] 	lookupTimeSig:mean 	2.1142857142857
scalar Network.dyn_peer[902] 	lookupStabilitySig:mean 	0.88800649344921
scalar Network.dyn_peer[902] 	lookupHopsSig:mean 	20.285714285714
scalar Network.dyn_peer[903] 	lookupTimeSig:mean 	1.65
scalar Network.dyn_peer[903] 	lookupStabilitySig:mean 	0.73202914511785
scalar Network.dyn_peer[903] 	lookupHopsSig:mean 	15.75
scalar Network.dyn_peer[904] 	lookupTimeSig:mean 	3.75
scalar Network.dyn_peer[904] 	lookupStabilitySig:mean 	0.64197530597448
scalar Network.dyn_peer[904] 	lookupHopsSig:mean 	37
scalar Network.dyn_peer[905] 	lookupTimeSig:mean 	1.88
scalar Network.dyn_peer[905] 	lookupStabilitySig:mean 	0.90124729983509
scalar Network.dyn_peer[905] 	lookupHopsSig:mean 	17.9
scalar Network.dyn_peer[906] 	lookupTimeSig:mean 	2.575
scalar Network.dyn_peer[906] 	lookupStabilitySig:mean 	0.75045751221478
scalar Network.dyn_peer[906] 	lookupHopsSig:mean 	25
scalar Network.dyn_peer[907] 	lookupTimeSig:mean 	1.3363636363636
scalar Network.dyn_peer[907] 	lookupStabilitySig:mean 	0.87855729778213
scalar Network.dyn_peer[907] 	lookupHopsSig:mean 	12.454545454545
scalar Network.dyn_peer[908] 	lookupTimeSig:mean 	1.8857142857143
scalar Network.dyn_peer[908] 	lookupStabilitySig:mean 	0.82553798668752
scalar Network.dyn_peer[908] 	lookupHopsSig:mean 	18
scalar Network.dyn_peer[909] 	lookupTimeSig:mean 	1.0571428571429
scalar Network.dyn_peer[909] 	lookupStabilitySig:mean 	0.79515665370439
scalar Network.dyn_peer[909] 	lookupHopsSig:mean 	9.7142857142857
scalar Network.dyn_peer[910] 	lookupTimeSig:mean 	1.9142857142857
scalar Network.dyn_peer[910] 	lookupStabilitySig:mean 	0.9118429568064
scalar Network.dyn_peer[910] 	lookupHopsSig:mean 	18.285714285714
scalar Network.dyn_peer[911] 	lookupTimeSig:mean 	2.0363636363636
scalar Network.dyn_peer[911] 	lookupStabilitySig:mean 	0.92982247649607
scalar Network.dyn_peer[911] 	lookupHopsSig:mean 	19.454545454545
scalar Network.dyn_peer[912] 	lookupTimeSig:mean 	2.3
scalar Network.dyn_peer[912] 	lookupStabilitySig:mean 	0.82379955456903
scalar Network.dyn_peer[912] 	lookupHopsSig:mean 	22.166666666667
scalar Network.dyn_peer[913] 	lookupTimeSig:mean 	0.86666666666667
scalar Network.dyn_peer[913] 	lookupStabilitySig:mean 	0.61085858444373
scalar Network.dyn_peer[913] 	lookupHopsSig:mean 	8
scalar Network.dyn_peer[914] 	lookupTimeSig:mean 	2.9333333333333
scalar Network.dyn_peer[914] 	lookupStabilitySig:mean 	0.81497206911445
scalar Network.dyn_peer[914] 	lookupHopsSig:mean 	28.666666666667
scalar Network.dyn_peer[915] 	lookupTimeSig:mean 	1.98
scalar Network.dyn_peer[915] 	lookupStabilitySig:mean 	0.95813730000518
scalar Network.dyn_peer[915] 	lookupHopsSig:mean 	18.9
scalar Network.dyn_peer[916] 	lookupTimeSig:mean 	1.7
scalar Network.dyn_peer[916] 	lookupStabilitySig:mean 	0.8542129650712
scalar Network.dyn_peer[916] 	lookupHopsSig:mean 	16.2
scalar Network.dyn_peer[917] 	lookupTimeSig:mean 	2.1166666666667
scalar Network.dyn_peer[917] 	lookupStabilitySig:mean 	0.87832412077114
scalar Network.dyn_peer[917] 	lookupHopsSig:mean 	20.25
scalar Network.dyn_peer[918] 	lookupTimeSig:mean 	1.95
scalar Network.dyn_peer[918] 	lookupStabilitySig:mean 	0.87421000126051
scalar Network.dyn_peer[918] 	lookupHopsSig:mean 	18.625
scalar Network.dyn_peer[919] 	lookupTimeSig:mean 	1.2428571428571
scalar Network.dyn_peer[919] 	lookupStabilitySig:mean 	0.81802191292601
scalar Network.dyn_peer[919] 	lookupHopsSig:mean 	11.571428571429
scalar Network.dyn_peer[920] 	lookupTimeSig:mean 	1.9769230769231
scalar Network.dyn_peer[920] 	lookupStabilitySig:mean 	0.95606605604721
scalar Network.dyn_peer[920] 	lookupHopsSig:mean 	18.846153846154
scalar Network.dyn_peer[921] 	lookupTimeSig:mean 	1.7125
scalar Network.dyn_peer[921] 	lookupStabilitySig:mean 	0.84445757209323
scalar Network.dyn_peer[921] 	lookupHopsSig:mean 	16.25
scalar Network.dyn_peer[922] 	lookupTimeSig:mean 	3.5
scalar Network.dyn_peer[922] 	lookupStabilitySig:mean 	0.87386777158827
scalar Network.dyn_peer[922] 	lookupHopsSig:mean 	34.25
scalar Network.dyn_peer[923] 	lookupTimeSig:mean 	2.2666666666667
scalar Network.dyn_peer[923] 	lookupStabilitySig:mean 	0.83347081579268
scalar Network.dyn_peer[923] 	lookupHopsSig:mean 	21.833333333333
scalar Network.dyn_peer[924] 	lookupTimeSig:mean 	1.7
scalar Network.dyn_peer[924] 	lookupStabilitySig:mean 	0.9698062104173
scalar Network.dyn_peer[924] 	lookupHopsSig:mean 	16.1
scalar Network.dyn_peer[925] 	lookupTimeSig:mean 	1.5466666666667
scalar Network.dyn_peer[925] 	lookupStabilitySig:mean 	0.90481596918156
scalar Network.dyn_peer[925] 	lookupHopsSig:mean 	14.533333333333
scalar Network.dyn_peer[926] 	lookupTimeSig:mean 	2.14
scalar Network.dyn_peer[926] 	lookupStabilitySig:mean 	0.82348147779703
scalar Network.dyn_peer[926] 	lookupHopsSig:mean 	20.6
scalar Network.dyn_peer[927] 	lookupTimeSig:mean 	1.9333333333333
scalar Network.dyn_peer[927] 	lookupStabilitySig:mean 	0.94659431589146
scalar Network.dyn_peer[927] 	lookupHopsSig:mean 	18.444444444444
scalar Network.dyn_peer[928] 	lookupTimeSig:mean 	2.275
scalar Network.dyn_peer[928] 	lookupStabilitySig:mean 	0.71967177651823
scalar Network.dyn_peer[928] 	lookupHopsSig:mean 	22
scalar Network.dyn_peer[929] 	lookupTimeSig:mean 	1.62
scalar Network.dyn_peer[929] 	lookupStabilitySig:mean 	0.75519948690198
scalar Network.dyn_peer[929] 	lookupHopsSig:mean 	15.4
scalar Network.dyn_peer[930] 	lookupTimeSig:mean 	2.2166666666667
scalar Network.dyn_peer[930] 	lookupStabilitySig:mean 	0.84586016647518
scalar Network.dyn_peer[930] 	lookupHopsSig:mean 	21.333333333333
scalar Network.dyn_peer[931] 	lookupTimeSig:mean 	1.8416666666667
scalar Network.dyn_peer[931] 	lookupStabilitySig:mean 	0.89909910600788
scalar Network.dyn_peer[931] 	lookupHopsSig:mean 	17.5
scalar Network.dyn_peer[932] 	lookupTimeSig:mean 	2.3333333333333
scalar Network.dyn_peer[932] 	lookupStabilitySig:mean 	0.89418050212165
scalar Network.dyn_peer[932] 	lookupHopsSig:mean 	22.5
scalar Network.dyn_peer[933] 	lookupTimeSig:mean 	1.3153846153846
scalar Network.dyn_peer[933] 	lookupStabilitySig:mean 	0.89855169626669
scalar Network.dyn_peer[933] 	lookupHopsSig:mean 	12.230769230769
scalar Network.dyn_peer[934] 	lookupTimeSig:mean 	1.3428571428571
scalar Network.dyn_peer[934] 	lookupStabilitySig:mean 	0.80245654604265
scalar Network.dyn_peer[934] 	lookupHopsSig:mean 	12.571428571429
scalar Network.dyn_peer[935] 	lookupTimeSig:mean 	1.8111111111111
scalar Network.dyn_peer[935] 	lookupStabilitySig:mean 	0.8460505751686
scalar Network.dyn_peer[935] 	lookupHopsSig:mean 	17.222222222222
scalar Network.dyn_peer[936] 	lookupTimeSig:mean 	1.8888888888889
scalar Network.dyn_peer[936] 	lookupStabilitySig:mean 	0.87089552202572
scalar Network.dyn_peer[936] 	lookupHopsSig:mean 	18
scalar Network.dyn_peer[937] 	lookupTimeSig:mean 	1.4214285714286
scalar Network.dyn_peer[937] 	lookupStabilitySig:mean 	0.93996269516148
scalar Network.dyn_peer[937] 	lookupHopsSig:mean 	13.285714285714
scalar Network.dyn_peer[938] 	lookupTimeSig:mean 	2.86
scalar Network.dyn_peer[938] 	lookupStabilitySig:mean 	0.89975795857608
scalar Network.dyn_peer[938] 	lookupHopsSig:mean 	27.8
scalar Network.dyn_peer[939] 	lookupTimeSig:mean 	2.0333333333333
scalar Network.dyn_peer[939] 	lookupStabilitySig:mean 	0.7847723737359
scalar Network.dyn_peer[939] 	lookupHopsSig:mean 	19.666666666667
scalar Network.dyn_peer[940] 	lookupTimeSig:mean 	1.65
scalar Network.dyn_peer[940] 	lookupStabilitySig:mean 	0.88454400996367
scalar Network.dyn_peer[940] 	lookupHopsSig:mean 	15.583333333333
scalar Network.dyn_peer[941] 	lookupTimeSig:mean 	1.725
scalar Network.dyn_peer[941] 	lookupStabilitySig:mean 	0.71048882044852
scalar Network.dyn_peer[941] 	lookupHopsSig:mean 	16.5
scalar Network.dyn_peer[942] 	lookupTimeSig:mean 	2
scalar Network.dyn_peer[942] 	lookupStabilitySig:mean 	0.67995765805244
scalar Network.dyn_peer[942] 	lookupHopsSig:mean 	19.333333333333
scalar Network.dyn_peer[943] 	lookupTimeSig:mean 	1.325
scalar Network.dyn_peer[943] 	lookupStabilitySig:mean 	0.67779990658164
scalar Network.dyn_peer[943] 	lookupHopsSig:mean 	12.5
scalar Network.dyn_peer[944] 	lookupTimeSig:mean 	1.4555555555556
scalar Network.dyn_peer[944] 	lookupStabilitySig:mean 	0.86103160389596
scalar Network.dyn_peer[944] 	lookupHopsSig:mean 	13.666666666667
scalar Network.dyn_peer[945] 	lookupTimeSig:mean 	1.3
scalar Network.dyn_peer[945] 	lookupStabilitySig:mean 	0.79797375481576
scalar Network.dyn_peer[945] 	lookupHopsSig:mean 	12.25
scalar Network.dyn_peer[946] 	lookupTimeSig:mean 	1.7875
scalar Network.dyn_peer[946] 	lookupStabilitySig:mean 	0.9391797502758
scalar Network.dyn_peer[946] 	lookupHopsSig:mean 	17
scalar Network.dyn_peer[947] 	lookupTimeSig:mean 	2.5666666666667
scalar Network.dyn_peer[947] 	lookupStabilitySig:mean 	0.93861457736542
scalar Network.dyn_peer[947] 	lookupHopsSig:mean 	24.833333333333
scalar Network.dyn_peer[948] 	lookupTimeSig:mean 	1.3333333333333
scalar Network.dyn_peer[948] 	lookupStabilitySig:mean 	0.60373560339212
scalar Network.dyn_peer[948] 	lookupHopsSig:mean 	12.666666666667
scalar Network.dyn_peer[949] 	lookupTimeSig:mean 	2.5333333333333
scalar Network.dyn_peer[949] 	lookupStabilitySig:mean 	0.82448711929222
scalar Network.dyn_peer[949] 	lookupHopsSig:mean 	24.666666666667
scalar Network.dyn_peer[950] 	lookupTimeSig:mean 	1.68
scalar Network.dyn_peer[950] 	lookupStabilitySig:mean 	0.89187956871465
scalar Network.dyn_peer[950] 	lookupHopsSig:mean 	15.9
scalar Network.dyn_peer[951] 	lookupTimeSig:mean 	2.25
scalar Network.dyn_peer[951] 	lookupStabilitySig:mean 	0.87136864289641
scalar Network.dyn_peer[951] 	lookupHopsSig:mean 	21.75
scalar Network.dyn_peer[952] 	lookupTimeSig:mean 	2.675
scalar Network.dyn_peer[952] 	lookupStabilitySig:mean 	0.90353064006194
scalar Network.dyn_peer[952] 	lookupHopsSig:mean 	26
scalar Network.dyn_peer[953] 	lookupTimeSig:mean 	2.55
scalar Network.dyn_peer[953] 	lookupStabilitySig:mean 	0.68356068432331
scalar Network.dyn_peer[953] 	lookupHopsSig:mean 	24.75
scalar Network.dyn_peer[954] 	lookupTimeSig:mean 	2.0666666666667
scalar Network.dyn_peer[954] 	lookupStabilitySig:mean 	0.9294994204926
scalar Network.dyn_peer[954] 	lookupHopsSig:mean 	19.833333333333
scalar Network.dyn_peer[955] 	lookupTimeSig:mean 	1.9416666666667
scalar Network.dyn_peer[955] 	lookupStabilitySig:mean 	0.97169109150612
scalar Network.dyn_peer[955] 	lookupHopsSig:mean 	18.5
scalar Network.dyn_peer[956] 	lookupTimeSig:mean 	1.12
scalar Network.dyn_peer[956] 	lookupStabilitySig:mean 	0.79237011559308
scalar Network.dyn_peer[956] 	lookupHopsSig:mean 	10.4
scalar Network.dyn_peer[957] 	lookupTimeSig:mean 	4.75
scalar Network.dyn_peer[957] 	lookupStabilitySig:mean 	0.850741147995
scalar Network.dyn_peer[957] 	lookupHopsSig:mean 	47
scalar Network.dyn_peer[958] 	lookupTimeSig:mean 	2.14
scalar Network.dyn_peer[958] 	lookupStabilitySig:mean 	0.91268080864102
scalar Network.dyn_peer[958] 	lookupHopsSig:mean 	20.6
scalar Network.dyn_peer[959] 	lookupTimeSig:mean 	1.6222222222222
scalar Network.dyn_peer[959] 	lookupStabilitySig:mean 	0.91915714202656
scalar Network.dyn_peer[959] 	lookupHopsSig:mean 	15.333333333333
scalar Network.dyn_peer[960] 	lookupTimeSig:mean 	1.825
scalar Network.dyn_peer[960] 	lookupStabilitySig:mean 	0.68433048017323
scalar Network.dyn_peer[960] 	lookupHopsSig:mean 	17.5
scalar Network.dyn_peer[961] 	lookupTimeSig:mean 	2.5333333333333
scalar Network.dyn_peer[961] 	lookupStabilitySig:mean 	0.83928832784295
scalar Network.dyn_peer[961] 	lookupHopsSig:mean 	24.666666666667
scalar Network.dyn_peer[962] 	lookupTimeSig:mean 	1.475
scalar Network.dyn_peer[962] 	lookupStabilitySig:mean 	0.70935188420117
scalar Network.dyn_peer[962] 	lookupHopsSig:mean 	14
scalar Network.dyn_peer[963] 	lookupTimeSig:mean 	1.975
scalar Network.dyn_peer[963] 	lookupStabilitySig:mean 	0.73908315226436
scalar Network.dyn_peer[963] 	lookupHopsSig:mean 	19
scalar Network.dyn_peer[964] 	lookupTimeSig:mean 	2.1285714285714
scalar Network.dyn_peer[964] 	lookupStabilitySig:mean 	0.93403974401632
scalar Network.dyn_peer[964] 	lookupHopsSig:mean 	20.428571428571
scalar Network.dyn_peer[965] 	lookupTimeSig:mean 	2.7
scalar Network.dyn_peer[965] 	lookupStabilitySig:mean 	0.88925344659947
scalar Network.dyn_peer[965] 	lookupHopsSig:mean 	26.25
scalar Network.dyn_peer[966] 	lookupTimeSig:mean 	0.97142857142857
scalar Network.dyn_peer[966] 	lookupStabilitySig:mean 	0.88386865053326
scalar Network.dyn_peer[966] 	lookupHopsSig:mean 	8.8571428571429
scalar Network.dyn_peer[967] 	lookupTimeSig:mean 	1.64
scalar Network.dyn_peer[967] 	lookupStabilitySig:mean 	0.82794417887926
scalar Network.dyn_peer[967] 	lookupHopsSig:mean 	15.6
scalar Network.dyn_peer[968] 	lookupTimeSig:mean 	2.275
scalar Network.dyn_peer[968] 	lookupStabilitySig:mean 	0.81941167358309
scalar Network.dyn_peer[968] 	lookupHopsSig:mean 	22
scalar Network.dyn_peer[969] 	lookupTimeSig:mean 	1.3285714285714
scalar Network.dyn_peer[969] 	lookupStabilitySig:mean 	0.86361137617912
scalar Network.dyn_peer[969] 	lookupHopsSig:mean 	12.428571428571
scalar Network.dyn_peer[970] 	lookupTimeSig:mean 	2.38
scalar Network.dyn_peer[970] 	lookupStabilitySig:mean 	0.93738483847119
scalar Network.dyn_peer[970] 	lookupHopsSig:mean 	22.9
scalar Network.dyn_peer[971] 	lookupTimeSig:mean 	2.75
scalar Network.dyn_peer[971] 	lookupStabilitySig:mean 	0.76281917840242
scalar Network.dyn_peer[971] 	lookupHopsSig:mean 	27
scalar Network.dyn_peer[972] 	lookupTimeSig:mean 	1.2571428571429
scalar Network.dyn_peer[972] 	lookupStabilitySig:mean 	0.90896467957646
scalar Network.dyn_peer[972] 	lookupHopsSig:mean 	11.714285714286
scalar Network.dyn_peer[973] 	lookupTimeSig:mean 	2.2285714285714
scalar Network.dyn_peer[973] 	lookupStabilitySig:mean 	0.90796207117715
scalar Network.dyn_peer[973] 	lookupHopsSig:mean 	21.428571428571
scalar Network.dyn_peer[974] 	lookupTimeSig:mean 	2.25
scalar Network.dyn_peer[974] 	lookupStabilitySig:mean 	0.69555633701384
scalar Network.dyn_peer[974] 	lookupHopsSig:mean 	21.75
scalar Network.dyn_peer[975] 	lookupTimeSig:mean 	1.6833333333333
scalar Network.dyn_peer[975] 	lookupStabilitySig:mean 	0.87591006296376
scalar Network.dyn_peer[975] 	lookupHopsSig:mean 	16
scalar Network.dyn_peer[976] 	lookupTimeSig:mean 	1.3285714285714
scalar Network.dyn_peer[976] 	lookupStabilitySig:mean 	0.8711122301008
scalar Network.dyn_peer[976] 	lookupHopsSig:mean 	12.428571428571
scalar Network.dyn_peer[977] 	lookupTimeSig:mean 	1.4666666666667
scalar Network.dyn_peer[977] 	lookupStabilitySig:mean 	0.81235024922838
scalar Network.dyn_peer[977] 	lookupHopsSig:mean 	13.833333333333
scalar Network.dyn_peer[978] 	lookupTimeSig:mean 	1.2
scalar Network.dyn_peer[978] 	lookupStabilitySig:mean 	0.86434639835109
scalar Network.dyn_peer[978] 	lookupHopsSig:mean 	11.166666666667
scalar Network.dyn_peer[979] 	lookupTimeSig:mean 	1.8666666666667
scalar Network.dyn_peer[979] 	lookupStabilitySig:mean 	0.79651857633144
scalar Network.dyn_peer[979] 	lookupHopsSig:mean 	17.833333333333
scalar Network.dyn_peer[980] 	lookupTimeSig:mean 	1.4
scalar Network.dyn_peer[980] 	lookupStabilitySig:mean 	0.66591250523925
scalar Network.dyn_peer[980] 	lookupHopsSig:mean 	13.5
scalar Network.dyn_peer[981] 	lookupTimeSig:mean 	2.5166666666667
scalar Network.dyn_peer[981] 	lookupStabilitySig:mean 	0.94465189768622
scalar Network.dyn_peer[981] 	lookupHopsSig:mean 	24.333333333333
scalar Network.dyn_peer[982] 	lookupTimeSig:mean 	1.63
scalar Network.dyn_peer[982] 	lookupStabilitySig:mean 	0.94544097454054
scalar Network.dyn_peer[982] 	lookupHopsSig:mean 	15.4
scalar Network.dyn_peer[983] 	lookupTimeSig:mean 	3.3
scalar Network.dyn_peer[983] 	lookupStabilitySig:mean 	0.91443587420508
scalar Network.dyn_peer[983] 	lookupHopsSig:mean 	32.25
scalar Network.dyn_peer[984] 	lookupTimeSig:mean 	2.2666666666667
scalar Network.dyn_peer[984] 	lookupStabilitySig:mean 	0.69388598079483
scalar Network.dyn_peer[984] 	lookupHopsSig:mean 	22
scalar Network.dyn_peer[985] 	lookupTimeSig:mean 	1.9846153846154
scalar Network.dyn_peer[985] 	lookupStabilitySig:mean 	0.91977332890607
scalar Network.dyn_peer[985] 	lookupHopsSig:mean 	18.923076923077
scalar Network.dyn_peer[986] 	lookupTimeSig:mean 	2.675
scalar Network.dyn_peer[986] 	lookupStabilitySig:mean 	0.90260192588903
scalar Network.dyn_peer[986] 	lookupHopsSig:mean 	26
scalar Network.dyn_peer[987] 	lookupTimeSig:mean 	3.2
scalar Network.dyn_peer[987] 	lookupStabilitySig:mean 	0.76678396264712
scalar Network.dyn_peer[987] 	lookupHopsSig:mean 	31.333333333333
scalar Network.dyn_peer[988] 	lookupTimeSig:mean 	3.65
scalar Network.dyn_peer[988] 	lookupStabilitySig:mean 	0.64732142537832
scalar Network.dyn_peer[988] 	lookupHopsSig:mean 	36
scalar Network.dyn_peer[989] 	lookupTimeSig:mean 	1.6666666666667
scalar Network.dyn_peer[989] 	lookupStabilitySig:mean 	0.88000021999081
scalar Network.dyn_peer[989] 	lookupHopsSig:mean 	15.833333333333
scalar Network.dyn_peer[990] 	lookupTimeSig:mean 	2.35
scalar Network.dyn_peer[990] 	lookupStabilitySig:mean 	0.80510499421507
scalar Network.dyn_peer[990] 	lookupHopsSig:mean 	22.75
scalar Network.dyn_peer[991] 	lookupTimeSig:mean 	2.18
scalar Network.dyn_peer[991] 	lookupStabilitySig:mean 	0.83617251887918
scalar Network.dyn_peer[991] 	lookupHopsSig:mean 	21
scalar Network.dyn_peer[992] 	lookupTimeSig:mean 	3.14
scalar Network.dyn_peer[992] 	lookupStabilitySig:mean 	0.79150132127106
scalar Network.dyn_peer[992] 	lookupHopsSig:mean 	30.6
scalar Network.dyn_peer[993] 	lookupTimeSig:mean 	1.74
scalar Network.dyn_peer[993] 	lookupStabilitySig:mean 	0.87578576095402
scalar Network.dyn_peer[993] 	lookupHopsSig:mean 	16.6
scalar Network.dyn_peer[994] 	lookupTimeSig:mean 	1.32
scalar Network.dyn_peer[994] 	lookupStabilitySig:mean 	0.7336315587163
scalar Network.dyn_peer[994] 	lookupHopsSig:mean 	12.4
scalar Network.dyn_peer[995] 	lookupTimeSig:mean 	1.3
scalar Network.dyn_peer[995] 	lookupStabilitySig:mean 	0.7402194224298
scalar Network.dyn_peer[995] 	lookupHopsSig:mean 	12.2
scalar Network.dyn_peer[996] 	lookupTimeSig:mean 	1.7428571428571
scalar Network.dyn_peer[996] 	lookupStabilitySig:mean 	0.87592772647206
scalar Network.dyn_peer[996] 	lookupHopsSig:mean 	16.571428571429
scalar Network.dyn_peer[997] 	lookupTimeSig:mean 	1.45
scalar Network.dyn_peer[997] 	lookupStabilitySig:mean 	0.89601397762696
scalar Network.dyn_peer[997] 	lookupHopsSig:mean 	13.666666666667
scalar Network.dyn_peer[998] 	lookupTimeSig:mean 	2.35
scalar Network.dyn_peer[998] 	lookupStabilitySig:mean 	0.58853460848331
scalar Network.dyn_peer[998] 	lookupHopsSig:mean 	23
scalar Network.dyn_peer[999] 	lookupTimeSig:mean 	1.6125
scalar Network.dyn_peer[999] 	lookupStabilitySig:mean 	0.85034201131202
scalar Network.dyn_peer[999] 	lookupHopsSig:mean 	15.25
scalar Network.churner 	inGoingSizeSig:mean 	498.58341658342
