version 2
run Stability2-302-20130526-00:54:23-26640
attr configname Stability2
attr datetime 20130526-00:54:23
attr experiment Stability2
attr inifile omnetpp.ini
attr iterationvars $0=1000
attr iterationvars2 "$0=1000, $repetition=2"
attr measurement $0=1000
attr network Network
attr processid 26640
attr repetition 2
attr replication #2
attr resultdir results
attr runnumber 302
attr seedset 302

scalar Network.dyn_peer[0] 	lookupTimeSig:mean 	2.525
scalar Network.dyn_peer[0] 	lookupStabilitySig:mean 	0.55746078398079
scalar Network.dyn_peer[0] 	lookupHopsSig:mean 	24.5
scalar Network.dyn_peer[1] 	lookupTimeSig:mean 	1.0125
scalar Network.dyn_peer[1] 	lookupStabilitySig:mean 	0.67658110614866
scalar Network.dyn_peer[1] 	lookupHopsSig:mean 	9.25
scalar Network.dyn_peer[2] 	lookupTimeSig:mean 	1.94
scalar Network.dyn_peer[2] 	lookupStabilitySig:mean 	0.53741414248943
scalar Network.dyn_peer[2] 	lookupHopsSig:mean 	18.6
scalar Network.dyn_peer[3] 	lookupTimeSig:mean 	2.925
scalar Network.dyn_peer[3] 	lookupStabilitySig:mean 	0.5131821827963
scalar Network.dyn_peer[3] 	lookupHopsSig:mean 	28.5
scalar Network.dyn_peer[4] 	lookupTimeSig:mean 	1.4777777777778
scalar Network.dyn_peer[4] 	lookupStabilitySig:mean 	0.71796844278773
scalar Network.dyn_peer[4] 	lookupHopsSig:mean 	13.888888888889
scalar Network.dyn_peer[5] 	lookupTimeSig:mean 	2.4
scalar Network.dyn_peer[5] 	lookupStabilitySig:mean 	0.43347220495343
scalar Network.dyn_peer[5] 	lookupHopsSig:mean 	23.25
scalar Network.dyn_peer[6] 	lookupTimeSig:mean 	2.075
scalar Network.dyn_peer[6] 	lookupStabilitySig:mean 	0.49214623868465
scalar Network.dyn_peer[6] 	lookupHopsSig:mean 	20
scalar Network.dyn_peer[7] 	lookupTimeSig:mean 	1.76
scalar Network.dyn_peer[7] 	lookupStabilitySig:mean 	0.68741578012705
scalar Network.dyn_peer[7] 	lookupHopsSig:mean 	16.8
scalar Network.dyn_peer[8] 	lookupTimeSig:mean 	0.8
scalar Network.dyn_peer[8] 	lookupStabilitySig:mean 	0.35838151350617
scalar Network.dyn_peer[8] 	lookupHopsSig:mean 	7.25
scalar Network.dyn_peer[9] 	lookupTimeSig:mean 	1.8272727272727
scalar Network.dyn_peer[9] 	lookupStabilitySig:mean 	0.75492979780856
scalar Network.dyn_peer[9] 	lookupHopsSig:mean 	17.363636363636
scalar Network.dyn_peer[10] 	lookupTimeSig:mean 	1.1714285714286
scalar Network.dyn_peer[10] 	lookupStabilitySig:mean 	0.66629089255418
scalar Network.dyn_peer[10] 	lookupHopsSig:mean 	10.857142857143
scalar Network.dyn_peer[11] 	lookupTimeSig:mean 	1.9
scalar Network.dyn_peer[11] 	lookupStabilitySig:mean 	0.65187145397067
scalar Network.dyn_peer[11] 	lookupHopsSig:mean 	18.25
scalar Network.dyn_peer[12] 	lookupTimeSig:mean 	1.16
scalar Network.dyn_peer[12] 	lookupStabilitySig:mean 	0.61683574914932
scalar Network.dyn_peer[12] 	lookupHopsSig:mean 	10.8
scalar Network.dyn_peer[13] 	lookupTimeSig:mean 	1.98
scalar Network.dyn_peer[13] 	lookupStabilitySig:mean 	0.73764342665672
scalar Network.dyn_peer[13] 	lookupHopsSig:mean 	19
scalar Network.dyn_peer[14] 	lookupTimeSig:mean 	1.4
scalar Network.dyn_peer[14] 	lookupStabilitySig:mean 	0.62902963037292
scalar Network.dyn_peer[14] 	lookupHopsSig:mean 	13.166666666667
scalar Network.dyn_peer[15] 	lookupTimeSig:mean 	0.8
scalar Network.dyn_peer[15] 	lookupStabilitySig:mean 	0.20833331346512
scalar Network.dyn_peer[15] 	lookupHopsSig:mean 	7.3333333333333
scalar Network.dyn_peer[16] 	lookupTimeSig:mean 	1.2666666666667
scalar Network.dyn_peer[16] 	lookupStabilitySig:mean 	0.57687290478498
scalar Network.dyn_peer[16] 	lookupHopsSig:mean 	11.833333333333
scalar Network.dyn_peer[17] 	lookupTimeSig:mean 	1.7454545454545
scalar Network.dyn_peer[17] 	lookupStabilitySig:mean 	0.8463962840509
scalar Network.dyn_peer[17] 	lookupHopsSig:mean 	16.545454545455
scalar Network.dyn_peer[18] 	lookupTimeSig:mean 	1.1714285714286
scalar Network.dyn_peer[18] 	lookupStabilitySig:mean 	0.81314867043069
scalar Network.dyn_peer[18] 	lookupHopsSig:mean 	10.857142857143
scalar Network.dyn_peer[19] 	lookupTimeSig:mean 	1.85
scalar Network.dyn_peer[19] 	lookupStabilitySig:mean 	0.81682381631496
scalar Network.dyn_peer[19] 	lookupHopsSig:mean 	17.666666666667
scalar Network.dyn_peer[20] 	lookupTimeSig:mean 	1.66
scalar Network.dyn_peer[20] 	lookupStabilitySig:mean 	0.48768945783377
scalar Network.dyn_peer[20] 	lookupHopsSig:mean 	15.8
scalar Network.dyn_peer[21] 	lookupTimeSig:mean 	2.2
scalar Network.dyn_peer[21] 	lookupStabilitySig:mean 	0.7213191449243
scalar Network.dyn_peer[21] 	lookupHopsSig:mean 	21.142857142857
scalar Network.dyn_peer[22] 	lookupTimeSig:mean 	1.72
scalar Network.dyn_peer[22] 	lookupStabilitySig:mean 	0.54506582468748
scalar Network.dyn_peer[22] 	lookupHopsSig:mean 	16.4
scalar Network.dyn_peer[23] 	lookupTimeSig:mean 	1.05
scalar Network.dyn_peer[23] 	lookupStabilitySig:mean 	0.63307053502649
scalar Network.dyn_peer[23] 	lookupHopsSig:mean 	9.625
scalar Network.dyn_peer[24] 	lookupTimeSig:mean 	1.55
scalar Network.dyn_peer[24] 	lookupStabilitySig:mean 	0.84729215161254
scalar Network.dyn_peer[24] 	lookupHopsSig:mean 	14.666666666667
scalar Network.dyn_peer[25] 	lookupTimeSig:mean 	3.2
scalar Network.dyn_peer[25] 	lookupStabilitySig:mean 	0.19769501686096
scalar Network.dyn_peer[25] 	lookupHopsSig:mean 	31.5
scalar Network.dyn_peer[26] 	lookupTimeSig:mean 	1.1
scalar Network.dyn_peer[26] 	lookupStabilitySig:mean 	0.56987321376801
scalar Network.dyn_peer[26] 	lookupHopsSig:mean 	10.2
scalar Network.dyn_peer[27] 	lookupTimeSig:mean 	2.68
scalar Network.dyn_peer[27] 	lookupStabilitySig:mean 	0.72643698714674
scalar Network.dyn_peer[27] 	lookupHopsSig:mean 	26
scalar Network.dyn_peer[28] 	lookupTimeSig:mean 	1.5857142857143
scalar Network.dyn_peer[28] 	lookupStabilitySig:mean 	0.70282104558178
scalar Network.dyn_peer[28] 	lookupHopsSig:mean 	15
scalar Network.dyn_peer[29] 	lookupTimeSig:mean 	0.675
scalar Network.dyn_peer[29] 	lookupStabilitySig:mean 	0.42916666530073
scalar Network.dyn_peer[29] 	lookupHopsSig:mean 	6
scalar Network.dyn_peer[30] 	lookupTimeSig:mean 	1.86
scalar Network.dyn_peer[30] 	lookupStabilitySig:mean 	0.5458336353302
scalar Network.dyn_peer[30] 	lookupHopsSig:mean 	17.8
scalar Network.dyn_peer[31] 	lookupTimeSig:mean 	1.3142857142857
scalar Network.dyn_peer[31] 	lookupStabilitySig:mean 	0.73116339423827
scalar Network.dyn_peer[31] 	lookupHopsSig:mean 	12.285714285714
scalar Network.dyn_peer[32] 	lookupTimeSig:mean 	2.0333333333333
scalar Network.dyn_peer[32] 	lookupStabilitySig:mean 	0.47357746462027
scalar Network.dyn_peer[32] 	lookupHopsSig:mean 	19.666666666667
scalar Network.dyn_peer[33] 	lookupTimeSig:mean 	1.775
scalar Network.dyn_peer[33] 	lookupStabilitySig:mean 	0.70680536143482
scalar Network.dyn_peer[33] 	lookupHopsSig:mean 	17
scalar Network.dyn_peer[34] 	lookupTimeSig:mean 	3.575
scalar Network.dyn_peer[34] 	lookupStabilitySig:mean 	0.48755546147004
scalar Network.dyn_peer[34] 	lookupHopsSig:mean 	35
scalar Network.dyn_peer[35] 	lookupTimeSig:mean 	0.9375
scalar Network.dyn_peer[35] 	lookupStabilitySig:mean 	0.71868582977913
scalar Network.dyn_peer[35] 	lookupHopsSig:mean 	8.5
scalar Network.dyn_peer[36] 	lookupTimeSig:mean 	2.8
scalar Network.dyn_peer[36] 	lookupStabilitySig:mean 	0.61990130972117
scalar Network.dyn_peer[36] 	lookupHopsSig:mean 	27.25
scalar Network.dyn_peer[37] 	lookupTimeSig:mean 	2.7333333333333
scalar Network.dyn_peer[37] 	lookupStabilitySig:mean 	0.8415795614322
scalar Network.dyn_peer[37] 	lookupHopsSig:mean 	26.666666666667
scalar Network.dyn_peer[38] 	lookupTimeSig:mean 	1.9333333333333
scalar Network.dyn_peer[38] 	lookupStabilitySig:mean 	0.76119619421661
scalar Network.dyn_peer[38] 	lookupHopsSig:mean 	18.444444444444
scalar Network.dyn_peer[39] 	lookupTimeSig:mean 	1.975
scalar Network.dyn_peer[39] 	lookupStabilitySig:mean 	0.74411976337433
scalar Network.dyn_peer[39] 	lookupHopsSig:mean 	19
scalar Network.dyn_peer[40] 	lookupTimeSig:mean 	1.2285714285714
scalar Network.dyn_peer[40] 	lookupStabilitySig:mean 	0.63186730550868
scalar Network.dyn_peer[40] 	lookupHopsSig:mean 	11.428571428571
scalar Network.dyn_peer[41] 	lookupTimeSig:mean 	4.65
scalar Network.dyn_peer[41] 	lookupStabilitySig:mean 	0.47709496319294
scalar Network.dyn_peer[41] 	lookupHopsSig:mean 	46
scalar Network.dyn_peer[42] 	lookupTimeSig:mean 	1.3916666666667
scalar Network.dyn_peer[42] 	lookupStabilitySig:mean 	0.79113470786251
scalar Network.dyn_peer[42] 	lookupHopsSig:mean 	13
scalar Network.dyn_peer[43] 	lookupTimeSig:mean 	0.9
scalar Network.dyn_peer[43] 	lookupStabilitySig:mean 	0.49949068017304
scalar Network.dyn_peer[43] 	lookupHopsSig:mean 	8.25
scalar Network.dyn_peer[44] 	lookupTimeSig:mean 	2.4
scalar Network.dyn_peer[44] 	lookupStabilitySig:mean 	0.37207977970441
scalar Network.dyn_peer[44] 	lookupHopsSig:mean 	23.333333333333
scalar Network.dyn_peer[45] 	lookupTimeSig:mean 	1.2266666666667
scalar Network.dyn_peer[45] 	lookupStabilitySig:mean 	0.83805918172002
scalar Network.dyn_peer[45] 	lookupHopsSig:mean 	11.333333333333
scalar Network.dyn_peer[46] 	lookupTimeSig:mean 	1.8
scalar Network.dyn_peer[46] 	lookupStabilitySig:mean 	0.63640623819083
scalar Network.dyn_peer[46] 	lookupHopsSig:mean 	17.166666666667
scalar Network.dyn_peer[47] 	lookupTimeSig:mean 	1.2583333333333
scalar Network.dyn_peer[47] 	lookupStabilitySig:mean 	0.78631829518902
scalar Network.dyn_peer[47] 	lookupHopsSig:mean 	11.666666666667
scalar Network.dyn_peer[48] 	lookupTimeSig:mean 	2.78
scalar Network.dyn_peer[48] 	lookupStabilitySig:mean 	0.65711674839258
scalar Network.dyn_peer[48] 	lookupHopsSig:mean 	27
scalar Network.dyn_peer[49] 	lookupTimeSig:mean 	1.2857142857143
scalar Network.dyn_peer[49] 	lookupStabilitySig:mean 	0.6975441010935
scalar Network.dyn_peer[49] 	lookupHopsSig:mean 	12
scalar Network.dyn_peer[50] 	lookupTimeSig:mean 	1.35
scalar Network.dyn_peer[50] 	lookupStabilitySig:mean 	0.74906304789086
scalar Network.dyn_peer[50] 	lookupHopsSig:mean 	12.666666666667
scalar Network.dyn_peer[51] 	lookupTimeSig:mean 	1.86
scalar Network.dyn_peer[51] 	lookupStabilitySig:mean 	0.54499072730541
scalar Network.dyn_peer[51] 	lookupHopsSig:mean 	17.8
scalar Network.dyn_peer[52] 	lookupTimeSig:mean 	0.8
scalar Network.dyn_peer[52] 	lookupStabilitySig:mean 	0.46810064464808
scalar Network.dyn_peer[52] 	lookupHopsSig:mean 	7.2
scalar Network.dyn_peer[53] 	lookupTimeSig:mean 	2.75
scalar Network.dyn_peer[53] 	lookupStabilitySig:mean 	0.75087689049542
scalar Network.dyn_peer[53] 	lookupHopsSig:mean 	26.75
scalar Network.dyn_peer[54] 	lookupTimeSig:mean 	1.9
scalar Network.dyn_peer[54] 	lookupStabilitySig:mean 	0.87945863977075
scalar Network.dyn_peer[54] 	lookupHopsSig:mean 	18.1
scalar Network.dyn_peer[55] 	lookupTimeSig:mean 	1.78
scalar Network.dyn_peer[55] 	lookupStabilitySig:mean 	0.45328467488289
scalar Network.dyn_peer[55] 	lookupHopsSig:mean 	17
scalar Network.dyn_peer[56] 	lookupTimeSig:mean 	1.8
scalar Network.dyn_peer[56] 	lookupStabilitySig:mean 	0.51226332038641
scalar Network.dyn_peer[56] 	lookupHopsSig:mean 	17.25
scalar Network.dyn_peer[57] 	lookupTimeSig:mean 	1.7090909090909
scalar Network.dyn_peer[57] 	lookupStabilitySig:mean 	0.7332435332408
scalar Network.dyn_peer[57] 	lookupHopsSig:mean 	16.181818181818
scalar Network.dyn_peer[58] 	lookupTimeSig:mean 	2.475
scalar Network.dyn_peer[58] 	lookupStabilitySig:mean 	0.81464235368185
scalar Network.dyn_peer[58] 	lookupHopsSig:mean 	24
scalar Network.dyn_peer[59] 	lookupTimeSig:mean 	1.1875
scalar Network.dyn_peer[59] 	lookupStabilitySig:mean 	0.80212382460013
scalar Network.dyn_peer[59] 	lookupHopsSig:mean 	11
scalar Network.dyn_peer[60] 	lookupTimeSig:mean 	1.95
scalar Network.dyn_peer[60] 	lookupStabilitySig:mean 	0.82714016763493
scalar Network.dyn_peer[60] 	lookupHopsSig:mean 	18.6
scalar Network.dyn_peer[61] 	lookupTimeSig:mean 	1.6636363636364
scalar Network.dyn_peer[61] 	lookupStabilitySig:mean 	0.76141977276314
scalar Network.dyn_peer[61] 	lookupHopsSig:mean 	15.727272727273
scalar Network.dyn_peer[62] 	lookupTimeSig:mean 	2.05
scalar Network.dyn_peer[62] 	lookupStabilitySig:mean 	0.72496846452123
scalar Network.dyn_peer[62] 	lookupHopsSig:mean 	19.625
scalar Network.dyn_peer[63] 	lookupTimeSig:mean 	0.94285714285714
scalar Network.dyn_peer[63] 	lookupStabilitySig:mean 	0.5908463043826
scalar Network.dyn_peer[63] 	lookupHopsSig:mean 	8.5714285714286
scalar Network.dyn_peer[64] 	lookupTimeSig:mean 	1.76
scalar Network.dyn_peer[64] 	lookupStabilitySig:mean 	0.46756940819323
scalar Network.dyn_peer[64] 	lookupHopsSig:mean 	16.8
scalar Network.dyn_peer[65] 	lookupTimeSig:mean 	2.25
scalar Network.dyn_peer[65] 	lookupStabilitySig:mean 	0.82388839498162
scalar Network.dyn_peer[65] 	lookupHopsSig:mean 	21.666666666667
scalar Network.dyn_peer[66] 	lookupTimeSig:mean 	1.7333333333333
scalar Network.dyn_peer[66] 	lookupStabilitySig:mean 	0.73288622498512
scalar Network.dyn_peer[66] 	lookupHopsSig:mean 	16.5
scalar Network.dyn_peer[67] 	lookupTimeSig:mean 	1.9375
scalar Network.dyn_peer[67] 	lookupStabilitySig:mean 	0.72909395524766
scalar Network.dyn_peer[67] 	lookupHopsSig:mean 	18.5
scalar Network.dyn_peer[68] 	lookupTimeSig:mean 	1.0333333333333
scalar Network.dyn_peer[68] 	lookupStabilitySig:mean 	0.56034169687579
scalar Network.dyn_peer[68] 	lookupHopsSig:mean 	9.5
scalar Network.dyn_peer[69] 	lookupTimeSig:mean 	1.6333333333333
scalar Network.dyn_peer[69] 	lookupStabilitySig:mean 	0.40250303844611
scalar Network.dyn_peer[69] 	lookupHopsSig:mean 	15.666666666667
scalar Network.dyn_peer[70] 	lookupTimeSig:mean 	2.22
scalar Network.dyn_peer[70] 	lookupStabilitySig:mean 	0.48551970347762
scalar Network.dyn_peer[70] 	lookupHopsSig:mean 	21.4
scalar Network.dyn_peer[71] 	lookupTimeSig:mean 	1.3714285714286
scalar Network.dyn_peer[71] 	lookupStabilitySig:mean 	0.66131026617118
scalar Network.dyn_peer[71] 	lookupHopsSig:mean 	12.857142857143
scalar Network.dyn_peer[72] 	lookupTimeSig:mean 	2.775
scalar Network.dyn_peer[72] 	lookupStabilitySig:mean 	0.77725331299007
scalar Network.dyn_peer[72] 	lookupHopsSig:mean 	27
scalar Network.dyn_peer[73] 	lookupTimeSig:mean 	2.075
scalar Network.dyn_peer[73] 	lookupStabilitySig:mean 	0.42020102217793
scalar Network.dyn_peer[73] 	lookupHopsSig:mean 	20
scalar Network.dyn_peer[74] 	lookupTimeSig:mean 	1.42
scalar Network.dyn_peer[74] 	lookupStabilitySig:mean 	0.52966706827283
scalar Network.dyn_peer[74] 	lookupHopsSig:mean 	13.4
scalar Network.dyn_peer[75] 	lookupTimeSig:mean 	2.225
scalar Network.dyn_peer[75] 	lookupStabilitySig:mean 	0.52302669745404
scalar Network.dyn_peer[75] 	lookupHopsSig:mean 	21.5
scalar Network.dyn_peer[76] 	lookupTimeSig:mean 	3.7666666666667
scalar Network.dyn_peer[76] 	lookupStabilitySig:mean 	0.33533125122388
scalar Network.dyn_peer[76] 	lookupHopsSig:mean 	37
scalar Network.dyn_peer[77] 	lookupTimeSig:mean 	2.025
scalar Network.dyn_peer[77] 	lookupStabilitySig:mean 	0.76260279770941
scalar Network.dyn_peer[77] 	lookupHopsSig:mean 	19.5
scalar Network.dyn_peer[78] 	lookupTimeSig:mean 	1.5857142857143
scalar Network.dyn_peer[78] 	lookupStabilitySig:mean 	0.62796495202929
scalar Network.dyn_peer[78] 	lookupHopsSig:mean 	15
scalar Network.dyn_peer[79] 	lookupTimeSig:mean 	0.9
scalar Network.dyn_peer[79] 	lookupStabilitySig:mean 	0.6383002291744
scalar Network.dyn_peer[79] 	lookupHopsSig:mean 	8.1666666666667
scalar Network.dyn_peer[80] 	lookupTimeSig:mean 	1.2
scalar Network.dyn_peer[80] 	lookupStabilitySig:mean 	0.48776316456497
scalar Network.dyn_peer[80] 	lookupHopsSig:mean 	11.25
scalar Network.dyn_peer[81] 	lookupTimeSig:mean 	1.3666666666667
scalar Network.dyn_peer[81] 	lookupStabilitySig:mean 	0.35691055655479
scalar Network.dyn_peer[81] 	lookupHopsSig:mean 	13
scalar Network.dyn_peer[82] 	lookupTimeSig:mean 	2
scalar Network.dyn_peer[82] 	lookupStabilitySig:mean 	0.50656132772565
scalar Network.dyn_peer[82] 	lookupHopsSig:mean 	19.25
scalar Network.dyn_peer[83] 	lookupTimeSig:mean 	1.92
scalar Network.dyn_peer[83] 	lookupStabilitySig:mean 	0.56989836394787
scalar Network.dyn_peer[83] 	lookupHopsSig:mean 	18.4
scalar Network.dyn_peer[84] 	lookupTimeSig:mean 	2.55
scalar Network.dyn_peer[84] 	lookupStabilitySig:mean 	0.65925800024221
scalar Network.dyn_peer[84] 	lookupHopsSig:mean 	24.666666666667
scalar Network.dyn_peer[85] 	lookupTimeSig:mean 	2.05
scalar Network.dyn_peer[85] 	lookupStabilitySig:mean 	0.79965060134418
scalar Network.dyn_peer[85] 	lookupHopsSig:mean 	19.6
scalar Network.dyn_peer[86] 	lookupTimeSig:mean 	1.8
scalar Network.dyn_peer[86] 	lookupStabilitySig:mean 	0.84332153201103
scalar Network.dyn_peer[86] 	lookupHopsSig:mean 	17.142857142857
scalar Network.dyn_peer[87] 	lookupTimeSig:mean 	2.7
scalar Network.dyn_peer[87] 	lookupStabilitySig:mean 	0.73858118802309
scalar Network.dyn_peer[87] 	lookupHopsSig:mean 	26.333333333333
scalar Network.dyn_peer[88] 	lookupTimeSig:mean 	1.48
scalar Network.dyn_peer[88] 	lookupStabilitySig:mean 	0.47628165781498
scalar Network.dyn_peer[88] 	lookupHopsSig:mean 	14
scalar Network.dyn_peer[89] 	lookupTimeSig:mean 	1.0333333333333
scalar Network.dyn_peer[89] 	lookupStabilitySig:mean 	0.15797099471092
scalar Network.dyn_peer[89] 	lookupHopsSig:mean 	9.6666666666667
scalar Network.dyn_peer[90] 	lookupTimeSig:mean 	1.1444444444444
scalar Network.dyn_peer[90] 	lookupStabilitySig:mean 	0.77283400152293
scalar Network.dyn_peer[90] 	lookupHopsSig:mean 	10.555555555556
scalar Network.dyn_peer[91] 	lookupTimeSig:mean 	1.7444444444444
scalar Network.dyn_peer[91] 	lookupStabilitySig:mean 	0.77830154717796
scalar Network.dyn_peer[91] 	lookupHopsSig:mean 	16.555555555556
scalar Network.dyn_peer[92] 	lookupTimeSig:mean 	1.2666666666667
scalar Network.dyn_peer[92] 	lookupStabilitySig:mean 	0.63506056865056
scalar Network.dyn_peer[92] 	lookupHopsSig:mean 	11.833333333333
scalar Network.dyn_peer[93] 	lookupTimeSig:mean 	3.7666666666667
scalar Network.dyn_peer[93] 	lookupStabilitySig:mean 	0.30606590708097
scalar Network.dyn_peer[93] 	lookupHopsSig:mean 	37
scalar Network.dyn_peer[94] 	lookupTimeSig:mean 	1.325
scalar Network.dyn_peer[94] 	lookupStabilitySig:mean 	0.53587204962969
scalar Network.dyn_peer[94] 	lookupHopsSig:mean 	12.5
scalar Network.dyn_peer[95] 	lookupTimeSig:mean 	3.175
scalar Network.dyn_peer[95] 	lookupStabilitySig:mean 	0.53619528561831
scalar Network.dyn_peer[95] 	lookupHopsSig:mean 	31
scalar Network.dyn_peer[96] 	lookupTimeSig:mean 	1.2
scalar Network.dyn_peer[96] 	lookupStabilitySig:mean 	0.45655697062612
scalar Network.dyn_peer[96] 	lookupHopsSig:mean 	11.2
scalar Network.dyn_peer[97] 	lookupTimeSig:mean 	2.225
scalar Network.dyn_peer[97] 	lookupStabilitySig:mean 	0.80312866158783
scalar Network.dyn_peer[97] 	lookupHopsSig:mean 	21.5
scalar Network.dyn_peer[98] 	lookupTimeSig:mean 	1.4444444444444
scalar Network.dyn_peer[98] 	lookupStabilitySig:mean 	0.8092001159158
scalar Network.dyn_peer[98] 	lookupHopsSig:mean 	13.555555555556
scalar Network.dyn_peer[99] 	lookupTimeSig:mean 	3.5
scalar Network.dyn_peer[99] 	lookupStabilitySig:mean 	0.53926461795345
scalar Network.dyn_peer[99] 	lookupHopsSig:mean 	34.25
scalar Network.dyn_peer[100] 	lookupTimeSig:mean 	1.125
scalar Network.dyn_peer[100] 	lookupStabilitySig:mean 	0.42250527441502
scalar Network.dyn_peer[100] 	lookupHopsSig:mean 	10.5
scalar Network.dyn_peer[101] 	lookupTimeSig:mean 	2.0142857142857
scalar Network.dyn_peer[101] 	lookupStabilitySig:mean 	0.67627016002578
scalar Network.dyn_peer[101] 	lookupHopsSig:mean 	19.285714285714
scalar Network.dyn_peer[102] 	lookupTimeSig:mean 	1.275
scalar Network.dyn_peer[102] 	lookupStabilitySig:mean 	0.73717048577964
scalar Network.dyn_peer[102] 	lookupHopsSig:mean 	12
scalar Network.dyn_peer[103] 	lookupTimeSig:mean 	3.075
scalar Network.dyn_peer[103] 	lookupStabilitySig:mean 	0.88146628066897
scalar Network.dyn_peer[103] 	lookupHopsSig:mean 	30
scalar Network.dyn_peer[104] 	lookupTimeSig:mean 	0.875
scalar Network.dyn_peer[104] 	lookupStabilitySig:mean 	0.41213569790125
scalar Network.dyn_peer[104] 	lookupHopsSig:mean 	8
scalar Network.dyn_peer[105] 	lookupTimeSig:mean 	1.225
scalar Network.dyn_peer[105] 	lookupStabilitySig:mean 	0.40956315025687
scalar Network.dyn_peer[105] 	lookupHopsSig:mean 	11.5
scalar Network.dyn_peer[106] 	lookupTimeSig:mean 	1.72
scalar Network.dyn_peer[106] 	lookupStabilitySig:mean 	0.82731261216104
scalar Network.dyn_peer[106] 	lookupHopsSig:mean 	16.4
scalar Network.dyn_peer[107] 	lookupTimeSig:mean 	1.8857142857143
scalar Network.dyn_peer[107] 	lookupStabilitySig:mean 	0.762290545074
scalar Network.dyn_peer[107] 	lookupHopsSig:mean 	18
scalar Network.dyn_peer[108] 	lookupTimeSig:mean 	3.7
scalar Network.dyn_peer[108] 	lookupStabilitySig:mean 	0.45975609123707
scalar Network.dyn_peer[108] 	lookupHopsSig:mean 	36.5
scalar Network.dyn_peer[109] 	lookupTimeSig:mean 	1.2444444444444
scalar Network.dyn_peer[109] 	lookupStabilitySig:mean 	0.75729873838524
scalar Network.dyn_peer[109] 	lookupHopsSig:mean 	11.555555555556
scalar Network.dyn_peer[110] 	lookupTimeSig:mean 	5.35
scalar Network.dyn_peer[110] 	lookupStabilitySig:mean 	0.49055793136358
scalar Network.dyn_peer[110] 	lookupHopsSig:mean 	53
scalar Network.dyn_peer[111] 	lookupTimeSig:mean 	1.75
scalar Network.dyn_peer[111] 	lookupStabilitySig:mean 	0.63947432364027
scalar Network.dyn_peer[111] 	lookupHopsSig:mean 	16.666666666667
scalar Network.dyn_peer[112] 	lookupTimeSig:mean 	1.66
scalar Network.dyn_peer[112] 	lookupStabilitySig:mean 	0.58250557109714
scalar Network.dyn_peer[112] 	lookupHopsSig:mean 	15.8
scalar Network.dyn_peer[113] 	lookupTimeSig:mean 	1.625
scalar Network.dyn_peer[113] 	lookupStabilitySig:mean 	0.5085161421448
scalar Network.dyn_peer[113] 	lookupHopsSig:mean 	15.5
scalar Network.dyn_peer[114] 	lookupTimeSig:mean 	2.4
scalar Network.dyn_peer[114] 	lookupStabilitySig:mean 	0.69933251151815
scalar Network.dyn_peer[114] 	lookupHopsSig:mean 	23.166666666667
scalar Network.dyn_peer[115] 	lookupTimeSig:mean 	1.4
scalar Network.dyn_peer[115] 	lookupStabilitySig:mean 	0.78054307121783
scalar Network.dyn_peer[115] 	lookupHopsSig:mean 	13.25
scalar Network.dyn_peer[116] 	lookupTimeSig:mean 	2.26
scalar Network.dyn_peer[116] 	lookupStabilitySig:mean 	0.64396185204387
scalar Network.dyn_peer[116] 	lookupHopsSig:mean 	21.8
scalar Network.dyn_peer[117] 	lookupTimeSig:mean 	2.34
scalar Network.dyn_peer[117] 	lookupStabilitySig:mean 	0.66989702060819
scalar Network.dyn_peer[117] 	lookupHopsSig:mean 	22.6
scalar Network.dyn_peer[118] 	lookupTimeSig:mean 	1.8
scalar Network.dyn_peer[118] 	lookupStabilitySig:mean 	0.39963369071484
scalar Network.dyn_peer[118] 	lookupHopsSig:mean 	17.25
scalar Network.dyn_peer[119] 	lookupTimeSig:mean 	1.3375
scalar Network.dyn_peer[119] 	lookupStabilitySig:mean 	0.76339406822808
scalar Network.dyn_peer[119] 	lookupHopsSig:mean 	12.5
scalar Network.dyn_peer[120] 	lookupTimeSig:mean 	1.9857142857143
scalar Network.dyn_peer[120] 	lookupStabilitySig:mean 	0.81296990918262
scalar Network.dyn_peer[120] 	lookupHopsSig:mean 	19
scalar Network.dyn_peer[121] 	lookupTimeSig:mean 	2.225
scalar Network.dyn_peer[121] 	lookupStabilitySig:mean 	0.63763722311705
scalar Network.dyn_peer[121] 	lookupHopsSig:mean 	21.5
scalar Network.dyn_peer[122] 	lookupTimeSig:mean 	2.6666666666667
scalar Network.dyn_peer[122] 	lookupStabilitySig:mean 	0.49214314421018
scalar Network.dyn_peer[122] 	lookupHopsSig:mean 	26
scalar Network.dyn_peer[123] 	lookupTimeSig:mean 	1.5555555555556
scalar Network.dyn_peer[123] 	lookupStabilitySig:mean 	0.7305355483873
scalar Network.dyn_peer[123] 	lookupHopsSig:mean 	14.666666666667
scalar Network.dyn_peer[124] 	lookupTimeSig:mean 	1.9142857142857
scalar Network.dyn_peer[124] 	lookupStabilitySig:mean 	0.88044580078817
scalar Network.dyn_peer[124] 	lookupHopsSig:mean 	18.285714285714
scalar Network.dyn_peer[125] 	lookupTimeSig:mean 	1.725
scalar Network.dyn_peer[125] 	lookupStabilitySig:mean 	0.61766512319446
scalar Network.dyn_peer[125] 	lookupHopsSig:mean 	16.5
scalar Network.dyn_peer[126] 	lookupTimeSig:mean 	1.2090909090909
scalar Network.dyn_peer[126] 	lookupStabilitySig:mean 	0.80764269574799
scalar Network.dyn_peer[126] 	lookupHopsSig:mean 	11.181818181818
scalar Network.dyn_peer[127] 	lookupTimeSig:mean 	1.82
scalar Network.dyn_peer[127] 	lookupStabilitySig:mean 	0.66355038434267
scalar Network.dyn_peer[127] 	lookupHopsSig:mean 	17.4
scalar Network.dyn_peer[128] 	lookupTimeSig:mean 	1.7666666666667
scalar Network.dyn_peer[128] 	lookupStabilitySig:mean 	0.76232678443193
scalar Network.dyn_peer[128] 	lookupHopsSig:mean 	16.833333333333
scalar Network.dyn_peer[129] 	lookupTimeSig:mean 	2.8666666666667
scalar Network.dyn_peer[129] 	lookupStabilitySig:mean 	0.41338267363608
scalar Network.dyn_peer[129] 	lookupHopsSig:mean 	28
scalar Network.dyn_peer[130] 	lookupTimeSig:mean 	1.6875
scalar Network.dyn_peer[130] 	lookupStabilitySig:mean 	0.89121183624957
scalar Network.dyn_peer[130] 	lookupHopsSig:mean 	16
scalar Network.dyn_peer[131] 	lookupTimeSig:mean 	2.85
scalar Network.dyn_peer[131] 	lookupStabilitySig:mean 	0.09494948387146
scalar Network.dyn_peer[131] 	lookupHopsSig:mean 	28
scalar Network.dyn_peer[132] 	lookupTimeSig:mean 	1.25
scalar Network.dyn_peer[132] 	lookupStabilitySig:mean 	0.52692163176835
scalar Network.dyn_peer[132] 	lookupHopsSig:mean 	11.75
scalar Network.dyn_peer[133] 	lookupTimeSig:mean 	1.4666666666667
scalar Network.dyn_peer[133] 	lookupStabilitySig:mean 	0.19917930165927
scalar Network.dyn_peer[133] 	lookupHopsSig:mean 	14
scalar Network.dyn_peer[134] 	lookupTimeSig:mean 	1.3733333333333
scalar Network.dyn_peer[134] 	lookupStabilitySig:mean 	0.84618365985031
scalar Network.dyn_peer[134] 	lookupHopsSig:mean 	12.8
scalar Network.dyn_peer[135] 	lookupTimeSig:mean 	1.0636363636364
scalar Network.dyn_peer[135] 	lookupStabilitySig:mean 	0.78320514216003
scalar Network.dyn_peer[135] 	lookupHopsSig:mean 	9.7272727272727
scalar Network.dyn_peer[136] 	lookupTimeSig:mean 	1.975
scalar Network.dyn_peer[136] 	lookupStabilitySig:mean 	0.51125877071172
scalar Network.dyn_peer[136] 	lookupHopsSig:mean 	19
scalar Network.dyn_peer[137] 	lookupTimeSig:mean 	1.7777777777778
scalar Network.dyn_peer[137] 	lookupStabilitySig:mean 	0.8517203959119
scalar Network.dyn_peer[137] 	lookupHopsSig:mean 	16.888888888889
scalar Network.dyn_peer[138] 	lookupTimeSig:mean 	1.25
scalar Network.dyn_peer[138] 	lookupStabilitySig:mean 	0.15934064239264
scalar Network.dyn_peer[138] 	lookupHopsSig:mean 	12
scalar Network.dyn_peer[139] 	lookupTimeSig:mean 	1.2857142857143
scalar Network.dyn_peer[139] 	lookupStabilitySig:mean 	0.71001246039357
scalar Network.dyn_peer[139] 	lookupHopsSig:mean 	12
scalar Network.dyn_peer[140] 	lookupTimeSig:mean 	2.1
scalar Network.dyn_peer[140] 	lookupStabilitySig:mean 	0.97013181095411
scalar Network.dyn_peer[140] 	lookupHopsSig:mean 	20.071428571429
scalar Network.dyn_peer[141] 	lookupTimeSig:mean 	1.15
scalar Network.dyn_peer[141] 	lookupStabilitySig:mean 	0.85903687289101
scalar Network.dyn_peer[141] 	lookupHopsSig:mean 	10.5625
scalar Network.dyn_peer[142] 	lookupTimeSig:mean 	1.6
scalar Network.dyn_peer[142] 	lookupStabilitySig:mean 	0.34282930195332
scalar Network.dyn_peer[142] 	lookupHopsSig:mean 	15.333333333333
scalar Network.dyn_peer[143] 	lookupTimeSig:mean 	1.8428571428571
scalar Network.dyn_peer[143] 	lookupStabilitySig:mean 	0.78851418143937
scalar Network.dyn_peer[143] 	lookupHopsSig:mean 	17.571428571429
scalar Network.dyn_peer[144] 	lookupTimeSig:mean 	1.4
scalar Network.dyn_peer[144] 	lookupStabilitySig:mean 	0.78067871555686
scalar Network.dyn_peer[144] 	lookupHopsSig:mean 	13.2
scalar Network.dyn_peer[145] 	lookupTimeSig:mean 	2.56
scalar Network.dyn_peer[145] 	lookupStabilitySig:mean 	0.82787461653352
scalar Network.dyn_peer[145] 	lookupHopsSig:mean 	24.8
scalar Network.dyn_peer[146] 	lookupTimeSig:mean 	1.4153846153846
scalar Network.dyn_peer[146] 	lookupStabilitySig:mean 	0.81241648500929
scalar Network.dyn_peer[146] 	lookupHopsSig:mean 	13.230769230769
scalar Network.dyn_peer[147] 	lookupTimeSig:mean 	2.4166666666667
scalar Network.dyn_peer[147] 	lookupStabilitySig:mean 	0.92690937205528
scalar Network.dyn_peer[147] 	lookupHopsSig:mean 	23.333333333333
scalar Network.dyn_peer[148] 	lookupTimeSig:mean 	2.04
scalar Network.dyn_peer[148] 	lookupStabilitySig:mean 	0.78746922202408
scalar Network.dyn_peer[148] 	lookupHopsSig:mean 	19.6
scalar Network.dyn_peer[149] 	lookupTimeSig:mean 	1.74
scalar Network.dyn_peer[149] 	lookupStabilitySig:mean 	0.61953750550747
scalar Network.dyn_peer[149] 	lookupHopsSig:mean 	16.6
scalar Network.dyn_peer[150] 	lookupTimeSig:mean 	1.65
scalar Network.dyn_peer[150] 	lookupStabilitySig:mean 	0.76309317369014
scalar Network.dyn_peer[150] 	lookupHopsSig:mean 	15.6
scalar Network.dyn_peer[151] 	lookupTimeSig:mean 	2.46
scalar Network.dyn_peer[151] 	lookupStabilitySig:mean 	0.66397562995553
scalar Network.dyn_peer[151] 	lookupHopsSig:mean 	23.8
scalar Network.dyn_peer[152] 	lookupTimeSig:mean 	3.2
scalar Network.dyn_peer[152] 	lookupStabilitySig:mean 	0.85911273397505
scalar Network.dyn_peer[152] 	lookupHopsSig:mean 	31.333333333333
scalar Network.dyn_peer[153] 	lookupTimeSig:mean 	2.3111111111111
scalar Network.dyn_peer[153] 	lookupStabilitySig:mean 	0.75951043195609
scalar Network.dyn_peer[153] 	lookupHopsSig:mean 	22.222222222222
scalar Network.dyn_peer[154] 	lookupTimeSig:mean 	3.125
scalar Network.dyn_peer[154] 	lookupStabilitySig:mean 	0.75935746356845
scalar Network.dyn_peer[154] 	lookupHopsSig:mean 	30.5
scalar Network.dyn_peer[155] 	lookupTimeSig:mean 	1.3888888888889
scalar Network.dyn_peer[155] 	lookupStabilitySig:mean 	0.78095435599486
scalar Network.dyn_peer[155] 	lookupHopsSig:mean 	13
scalar Network.dyn_peer[156] 	lookupTimeSig:mean 	1.5111111111111
scalar Network.dyn_peer[156] 	lookupStabilitySig:mean 	0.77380793758978
scalar Network.dyn_peer[156] 	lookupHopsSig:mean 	14.222222222222
scalar Network.dyn_peer[157] 	lookupTimeSig:mean 	2.9571428571429
scalar Network.dyn_peer[157] 	lookupStabilitySig:mean 	0.93230352763619
scalar Network.dyn_peer[157] 	lookupHopsSig:mean 	28.714285714286
scalar Network.dyn_peer[158] 	lookupTimeSig:mean 	2.1545454545455
scalar Network.dyn_peer[158] 	lookupStabilitySig:mean 	0.9509007007053
scalar Network.dyn_peer[158] 	lookupHopsSig:mean 	20.636363636364
scalar Network.dyn_peer[159] 	lookupTimeSig:mean 	1.7875
scalar Network.dyn_peer[159] 	lookupStabilitySig:mean 	0.86308262776583
scalar Network.dyn_peer[159] 	lookupHopsSig:mean 	17
scalar Network.dyn_peer[160] 	lookupTimeSig:mean 	1.69
scalar Network.dyn_peer[160] 	lookupStabilitySig:mean 	0.88931129351258
scalar Network.dyn_peer[160] 	lookupHopsSig:mean 	16
scalar Network.dyn_peer[161] 	lookupTimeSig:mean 	1.1
scalar Network.dyn_peer[161] 	lookupStabilitySig:mean 	0.8600134147952
scalar Network.dyn_peer[161] 	lookupHopsSig:mean 	10.166666666667
scalar Network.dyn_peer[162] 	lookupTimeSig:mean 	4.85
scalar Network.dyn_peer[162] 	lookupStabilitySig:mean 	0.79539110139012
scalar Network.dyn_peer[162] 	lookupHopsSig:mean 	48
scalar Network.dyn_peer[163] 	lookupTimeSig:mean 	3.0333333333333
scalar Network.dyn_peer[163] 	lookupStabilitySig:mean 	0.36937667926153
scalar Network.dyn_peer[163] 	lookupHopsSig:mean 	29.666666666667
scalar Network.dyn_peer[164] 	lookupTimeSig:mean 	1.98
scalar Network.dyn_peer[164] 	lookupStabilitySig:mean 	0.89698926024139
scalar Network.dyn_peer[164] 	lookupHopsSig:mean 	19
scalar Network.dyn_peer[165] 	lookupTimeSig:mean 	1.4875
scalar Network.dyn_peer[165] 	lookupStabilitySig:mean 	0.8668542370433
scalar Network.dyn_peer[165] 	lookupHopsSig:mean 	14
scalar Network.dyn_peer[166] 	lookupTimeSig:mean 	1.6818181818182
scalar Network.dyn_peer[166] 	lookupStabilitySig:mean 	0.95827558746731
scalar Network.dyn_peer[166] 	lookupHopsSig:mean 	15.909090909091
scalar Network.dyn_peer[167] 	lookupTimeSig:mean 	2.3375
scalar Network.dyn_peer[167] 	lookupStabilitySig:mean 	0.93568510771729
scalar Network.dyn_peer[167] 	lookupHopsSig:mean 	22.5
scalar Network.dyn_peer[168] 	lookupTimeSig:mean 	2.3833333333333
scalar Network.dyn_peer[168] 	lookupStabilitySig:mean 	0.9180862174447
scalar Network.dyn_peer[168] 	lookupHopsSig:mean 	23
scalar Network.dyn_peer[169] 	lookupTimeSig:mean 	2.28
scalar Network.dyn_peer[169] 	lookupStabilitySig:mean 	0.67882723771036
scalar Network.dyn_peer[169] 	lookupHopsSig:mean 	22
scalar Network.dyn_peer[170] 	lookupTimeSig:mean 	5.15
scalar Network.dyn_peer[170] 	lookupStabilitySig:mean 	0.75178253278136
scalar Network.dyn_peer[170] 	lookupHopsSig:mean 	51
scalar Network.dyn_peer[171] 	lookupTimeSig:mean 	2.0571428571429
scalar Network.dyn_peer[171] 	lookupStabilitySig:mean 	0.90120884829334
scalar Network.dyn_peer[171] 	lookupHopsSig:mean 	19.714285714286
scalar Network.dyn_peer[172] 	lookupTimeSig:mean 	1.92
scalar Network.dyn_peer[172] 	lookupStabilitySig:mean 	0.83744611777365
scalar Network.dyn_peer[172] 	lookupHopsSig:mean 	18.3
scalar Network.dyn_peer[173] 	lookupTimeSig:mean 	1.5333333333333
scalar Network.dyn_peer[173] 	lookupStabilitySig:mean 	0.37939930458864
scalar Network.dyn_peer[173] 	lookupHopsSig:mean 	14.666666666667
scalar Network.dyn_peer[174] 	lookupTimeSig:mean 	2.2666666666667
scalar Network.dyn_peer[174] 	lookupStabilitySig:mean 	0.90763978147879
scalar Network.dyn_peer[174] 	lookupHopsSig:mean 	21.833333333333
scalar Network.dyn_peer[175] 	lookupTimeSig:mean 	1.4818181818182
scalar Network.dyn_peer[175] 	lookupStabilitySig:mean 	0.9563382060521
scalar Network.dyn_peer[175] 	lookupHopsSig:mean 	13.909090909091
scalar Network.dyn_peer[176] 	lookupTimeSig:mean 	1.5666666666667
scalar Network.dyn_peer[176] 	lookupStabilitySig:mean 	0.9290119935241
scalar Network.dyn_peer[176] 	lookupHopsSig:mean 	14.777777777778
scalar Network.dyn_peer[177] 	lookupTimeSig:mean 	1.6333333333333
scalar Network.dyn_peer[177] 	lookupStabilitySig:mean 	0.38719314336777
scalar Network.dyn_peer[177] 	lookupHopsSig:mean 	15.666666666667
scalar Network.dyn_peer[178] 	lookupTimeSig:mean 	1.6428571428571
scalar Network.dyn_peer[178] 	lookupStabilitySig:mean 	0.85735701130969
scalar Network.dyn_peer[178] 	lookupHopsSig:mean 	15.571428571429
scalar Network.dyn_peer[179] 	lookupTimeSig:mean 	1.45
scalar Network.dyn_peer[179] 	lookupStabilitySig:mean 	0.77410907143106
scalar Network.dyn_peer[179] 	lookupHopsSig:mean 	13.666666666667
scalar Network.dyn_peer[180] 	lookupTimeSig:mean 	1.95
scalar Network.dyn_peer[180] 	lookupStabilitySig:mean 	0.92815515507633
scalar Network.dyn_peer[180] 	lookupHopsSig:mean 	18.666666666667
scalar Network.dyn_peer[181] 	lookupTimeSig:mean 	2.08
scalar Network.dyn_peer[181] 	lookupStabilitySig:mean 	0.82138575608842
scalar Network.dyn_peer[181] 	lookupHopsSig:mean 	19.9
scalar Network.dyn_peer[182] 	lookupTimeSig:mean 	1.8833333333333
scalar Network.dyn_peer[182] 	lookupStabilitySig:mean 	0.92965330913042
scalar Network.dyn_peer[182] 	lookupHopsSig:mean 	18
scalar Network.dyn_peer[183] 	lookupTimeSig:mean 	1.13
scalar Network.dyn_peer[183] 	lookupStabilitySig:mean 	0.7911336264573
scalar Network.dyn_peer[183] 	lookupHopsSig:mean 	10.4
scalar Network.dyn_peer[184] 	lookupTimeSig:mean 	1.7333333333333
scalar Network.dyn_peer[184] 	lookupStabilitySig:mean 	0.75641922528545
scalar Network.dyn_peer[184] 	lookupHopsSig:mean 	16.666666666667
scalar Network.dyn_peer[185] 	lookupTimeSig:mean 	1.9555555555556
scalar Network.dyn_peer[185] 	lookupStabilitySig:mean 	0.93223570018179
scalar Network.dyn_peer[185] 	lookupHopsSig:mean 	18.666666666667
scalar Network.dyn_peer[186] 	lookupTimeSig:mean 	2.55
scalar Network.dyn_peer[186] 	lookupStabilitySig:mean 	0.61412141798064
scalar Network.dyn_peer[186] 	lookupHopsSig:mean 	24.75
scalar Network.dyn_peer[187] 	lookupTimeSig:mean 	2.2714285714286
scalar Network.dyn_peer[187] 	lookupStabilitySig:mean 	0.92990258715249
scalar Network.dyn_peer[187] 	lookupHopsSig:mean 	21.857142857143
scalar Network.dyn_peer[188] 	lookupTimeSig:mean 	1.075
scalar Network.dyn_peer[188] 	lookupStabilitySig:mean 	0.52100563049316
scalar Network.dyn_peer[188] 	lookupHopsSig:mean 	10
scalar Network.dyn_peer[189] 	lookupTimeSig:mean 	3.0666666666667
scalar Network.dyn_peer[189] 	lookupStabilitySig:mean 	0.82668171450496
scalar Network.dyn_peer[189] 	lookupHopsSig:mean 	30
scalar Network.dyn_peer[190] 	lookupTimeSig:mean 	3.9
scalar Network.dyn_peer[190] 	lookupStabilitySig:mean 	0.88297200140854
scalar Network.dyn_peer[190] 	lookupHopsSig:mean 	38.333333333333
scalar Network.dyn_peer[191] 	lookupTimeSig:mean 	1.6666666666667
scalar Network.dyn_peer[191] 	lookupStabilitySig:mean 	0.92861574148345
scalar Network.dyn_peer[191] 	lookupHopsSig:mean 	15.777777777778
scalar Network.dyn_peer[192] 	lookupTimeSig:mean 	1.8666666666667
scalar Network.dyn_peer[192] 	lookupStabilitySig:mean 	0.38433641692003
scalar Network.dyn_peer[192] 	lookupHopsSig:mean 	18
scalar Network.dyn_peer[193] 	lookupTimeSig:mean 	2.6
scalar Network.dyn_peer[193] 	lookupStabilitySig:mean 	0.63805819046684
scalar Network.dyn_peer[193] 	lookupHopsSig:mean 	25.25
scalar Network.dyn_peer[194] 	lookupTimeSig:mean 	2.4444444444444
scalar Network.dyn_peer[194] 	lookupStabilitySig:mean 	0.92816760804918
scalar Network.dyn_peer[194] 	lookupHopsSig:mean 	23.555555555556
scalar Network.dyn_peer[195] 	lookupTimeSig:mean 	1.5428571428571
scalar Network.dyn_peer[195] 	lookupStabilitySig:mean 	0.95377939274268
scalar Network.dyn_peer[195] 	lookupHopsSig:mean 	14.5
scalar Network.dyn_peer[196] 	lookupTimeSig:mean 	1.71
scalar Network.dyn_peer[196] 	lookupStabilitySig:mean 	0.85753370970488
scalar Network.dyn_peer[196] 	lookupHopsSig:mean 	16.2
scalar Network.dyn_peer[197] 	lookupTimeSig:mean 	1.46
scalar Network.dyn_peer[197] 	lookupStabilitySig:mean 	0.76827378198504
scalar Network.dyn_peer[197] 	lookupHopsSig:mean 	13.7
scalar Network.dyn_peer[198] 	lookupTimeSig:mean 	1.9416666666667
scalar Network.dyn_peer[198] 	lookupStabilitySig:mean 	0.96073768877735
scalar Network.dyn_peer[198] 	lookupHopsSig:mean 	18.5
scalar Network.dyn_peer[199] 	lookupTimeSig:mean 	2.4181818181818
scalar Network.dyn_peer[199] 	lookupStabilitySig:mean 	0.93572275539521
scalar Network.dyn_peer[199] 	lookupHopsSig:mean 	23.272727272727
scalar Network.dyn_peer[200] 	lookupTimeSig:mean 	2.7142857142857
scalar Network.dyn_peer[200] 	lookupStabilitySig:mean 	0.89487556314894
scalar Network.dyn_peer[200] 	lookupHopsSig:mean 	26.285714285714
scalar Network.dyn_peer[201] 	lookupTimeSig:mean 	2.5857142857143
scalar Network.dyn_peer[201] 	lookupStabilitySig:mean 	0.94490122156484
scalar Network.dyn_peer[201] 	lookupHopsSig:mean 	25
scalar Network.dyn_peer[202] 	lookupTimeSig:mean 	1.9166666666667
scalar Network.dyn_peer[202] 	lookupStabilitySig:mean 	0.84174751599009
scalar Network.dyn_peer[202] 	lookupHopsSig:mean 	18.333333333333
scalar Network.dyn_peer[203] 	lookupTimeSig:mean 	1.45
scalar Network.dyn_peer[203] 	lookupStabilitySig:mean 	0.74731437675655
scalar Network.dyn_peer[203] 	lookupHopsSig:mean 	13.75
scalar Network.dyn_peer[204] 	lookupTimeSig:mean 	1.9571428571429
scalar Network.dyn_peer[204] 	lookupStabilitySig:mean 	0.94329047575593
scalar Network.dyn_peer[204] 	lookupHopsSig:mean 	18.714285714286
scalar Network.dyn_peer[205] 	lookupTimeSig:mean 	1.42
scalar Network.dyn_peer[205] 	lookupStabilitySig:mean 	0.66619179472327
scalar Network.dyn_peer[205] 	lookupHopsSig:mean 	13.4
scalar Network.dyn_peer[206] 	lookupTimeSig:mean 	1.575
scalar Network.dyn_peer[206] 	lookupStabilitySig:mean 	0.92771862668451
scalar Network.dyn_peer[206] 	lookupHopsSig:mean 	14.875
scalar Network.dyn_peer[207] 	lookupTimeSig:mean 	1.2625
scalar Network.dyn_peer[207] 	lookupStabilitySig:mean 	0.74797746422701
scalar Network.dyn_peer[207] 	lookupHopsSig:mean 	11.75
scalar Network.dyn_peer[208] 	lookupTimeSig:mean 	2.65
scalar Network.dyn_peer[208] 	lookupStabilitySig:mean 	0.88866398856044
scalar Network.dyn_peer[208] 	lookupHopsSig:mean 	25.75
scalar Network.dyn_peer[209] 	lookupTimeSig:mean 	1.6714285714286
scalar Network.dyn_peer[209] 	lookupStabilitySig:mean 	0.71997299151761
scalar Network.dyn_peer[209] 	lookupHopsSig:mean 	15.857142857143
scalar Network.dyn_peer[210] 	lookupTimeSig:mean 	1.1
scalar Network.dyn_peer[210] 	lookupStabilitySig:mean 	0.6088369678085
scalar Network.dyn_peer[210] 	lookupHopsSig:mean 	10.166666666667
scalar Network.dyn_peer[211] 	lookupTimeSig:mean 	2.9
scalar Network.dyn_peer[211] 	lookupStabilitySig:mean 	0.91299025528133
scalar Network.dyn_peer[211] 	lookupHopsSig:mean 	28.2
scalar Network.dyn_peer[212] 	lookupTimeSig:mean 	1.8666666666667
scalar Network.dyn_peer[212] 	lookupStabilitySig:mean 	0.68304691463709
scalar Network.dyn_peer[212] 	lookupHopsSig:mean 	18
scalar Network.dyn_peer[213] 	lookupTimeSig:mean 	2.4333333333333
scalar Network.dyn_peer[213] 	lookupStabilitySig:mean 	0.76230201870203
scalar Network.dyn_peer[213] 	lookupHopsSig:mean 	23.666666666667
scalar Network.dyn_peer[214] 	lookupTimeSig:mean 	1.8666666666667
scalar Network.dyn_peer[214] 	lookupStabilitySig:mean 	0.3950920154651
scalar Network.dyn_peer[214] 	lookupHopsSig:mean 	18
scalar Network.dyn_peer[215] 	lookupTimeSig:mean 	2.3
scalar Network.dyn_peer[215] 	lookupStabilitySig:mean 	0.76648923242465
scalar Network.dyn_peer[215] 	lookupHopsSig:mean 	22.25
scalar Network.dyn_peer[216] 	lookupTimeSig:mean 	2.1
scalar Network.dyn_peer[216] 	lookupStabilitySig:mean 	0.75450282597116
scalar Network.dyn_peer[216] 	lookupHopsSig:mean 	20.142857142857
scalar Network.dyn_peer[217] 	lookupTimeSig:mean 	2.3222222222222
scalar Network.dyn_peer[217] 	lookupStabilitySig:mean 	0.94409851103814
scalar Network.dyn_peer[217] 	lookupHopsSig:mean 	22.333333333333
scalar Network.dyn_peer[218] 	lookupTimeSig:mean 	1.7857142857143
scalar Network.dyn_peer[218] 	lookupStabilitySig:mean 	0.71663404069841
scalar Network.dyn_peer[218] 	lookupHopsSig:mean 	17
scalar Network.dyn_peer[219] 	lookupTimeSig:mean 	2.2857142857143
scalar Network.dyn_peer[219] 	lookupStabilitySig:mean 	0.93243859362389
scalar Network.dyn_peer[219] 	lookupHopsSig:mean 	22
scalar Network.dyn_peer[220] 	lookupTimeSig:mean 	1.29
scalar Network.dyn_peer[220] 	lookupStabilitySig:mean 	0.92553925290704
scalar Network.dyn_peer[220] 	lookupHopsSig:mean 	12
scalar Network.dyn_peer[221] 	lookupTimeSig:mean 	0.73333333333333
scalar Network.dyn_peer[221] 	lookupStabilitySig:mean 	0.23589742928743
scalar Network.dyn_peer[221] 	lookupHopsSig:mean 	6.6666666666667
scalar Network.dyn_peer[222] 	lookupTimeSig:mean 	1.2125
scalar Network.dyn_peer[222] 	lookupStabilitySig:mean 	0.71074165124446
scalar Network.dyn_peer[222] 	lookupHopsSig:mean 	11.25
scalar Network.dyn_peer[223] 	lookupTimeSig:mean 	2.5666666666667
scalar Network.dyn_peer[223] 	lookupStabilitySig:mean 	0.36084271967411
scalar Network.dyn_peer[223] 	lookupHopsSig:mean 	25
scalar Network.dyn_peer[224] 	lookupTimeSig:mean 	1.4
scalar Network.dyn_peer[224] 	lookupStabilitySig:mean 	0.77607990925511
scalar Network.dyn_peer[224] 	lookupHopsSig:mean 	13.333333333333
scalar Network.dyn_peer[225] 	lookupTimeSig:mean 	2.9333333333333
scalar Network.dyn_peer[225] 	lookupStabilitySig:mean 	0.86832505402466
scalar Network.dyn_peer[225] 	lookupHopsSig:mean 	28.666666666667
scalar Network.dyn_peer[226] 	lookupTimeSig:mean 	1.5333333333333
scalar Network.dyn_peer[226] 	lookupStabilitySig:mean 	0.82701120253963
scalar Network.dyn_peer[226] 	lookupHopsSig:mean 	14.416666666667
scalar Network.dyn_peer[227] 	lookupTimeSig:mean 	1.5384615384615
scalar Network.dyn_peer[227] 	lookupStabilitySig:mean 	0.95850327564403
scalar Network.dyn_peer[227] 	lookupHopsSig:mean 	14.461538461538
scalar Network.dyn_peer[228] 	lookupTimeSig:mean 	2.6571428571429
scalar Network.dyn_peer[228] 	lookupStabilitySig:mean 	0.93939684464463
scalar Network.dyn_peer[228] 	lookupHopsSig:mean 	25.714285714286
scalar Network.dyn_peer[229] 	lookupTimeSig:mean 	1.7
scalar Network.dyn_peer[229] 	lookupStabilitySig:mean 	0.47620763536543
scalar Network.dyn_peer[229] 	lookupHopsSig:mean 	16.25
scalar Network.dyn_peer[230] 	lookupTimeSig:mean 	1.69
scalar Network.dyn_peer[230] 	lookupStabilitySig:mean 	0.77406557467766
scalar Network.dyn_peer[230] 	lookupHopsSig:mean 	16
scalar Network.dyn_peer[231] 	lookupTimeSig:mean 	2.2571428571429
scalar Network.dyn_peer[231] 	lookupStabilitySig:mean 	0.91029998181122
scalar Network.dyn_peer[231] 	lookupHopsSig:mean 	21.714285714286
scalar Network.dyn_peer[232] 	lookupTimeSig:mean 	2.09
scalar Network.dyn_peer[232] 	lookupStabilitySig:mean 	0.94282911326736
scalar Network.dyn_peer[232] 	lookupHopsSig:mean 	20
scalar Network.dyn_peer[233] 	lookupTimeSig:mean 	3.5
scalar Network.dyn_peer[233] 	lookupStabilitySig:mean 	0.69101425384482
scalar Network.dyn_peer[233] 	lookupHopsSig:mean 	34.333333333333
scalar Network.dyn_peer[234] 	lookupTimeSig:mean 	1.1125
scalar Network.dyn_peer[234] 	lookupStabilitySig:mean 	0.8972868823912
scalar Network.dyn_peer[234] 	lookupHopsSig:mean 	10.25
scalar Network.dyn_peer[235] 	lookupTimeSig:mean 	1.3625
scalar Network.dyn_peer[235] 	lookupStabilitySig:mean 	0.89002137770876
scalar Network.dyn_peer[235] 	lookupHopsSig:mean 	12.75
scalar Network.dyn_peer[236] 	lookupTimeSig:mean 	2.06
scalar Network.dyn_peer[236] 	lookupStabilitySig:mean 	0.85858400836587
scalar Network.dyn_peer[236] 	lookupHopsSig:mean 	19.8
scalar Network.dyn_peer[237] 	lookupTimeSig:mean 	3.25
scalar Network.dyn_peer[237] 	lookupStabilitySig:mean 	0.88898586947471
scalar Network.dyn_peer[237] 	lookupHopsSig:mean 	31.75
scalar Network.dyn_peer[238] 	lookupTimeSig:mean 	1.6
scalar Network.dyn_peer[238] 	lookupStabilitySig:mean 	0.70734475801388
scalar Network.dyn_peer[238] 	lookupHopsSig:mean 	15.166666666667
scalar Network.dyn_peer[239] 	lookupTimeSig:mean 	1.5
scalar Network.dyn_peer[239] 	lookupStabilitySig:mean 	0.75087889149371
scalar Network.dyn_peer[239] 	lookupHopsSig:mean 	14.111111111111
scalar Network.dyn_peer[240] 	lookupTimeSig:mean 	2.05
scalar Network.dyn_peer[240] 	lookupStabilitySig:mean 	0.91622297217449
scalar Network.dyn_peer[240] 	lookupHopsSig:mean 	19.666666666667
scalar Network.dyn_peer[241] 	lookupTimeSig:mean 	1.74
scalar Network.dyn_peer[241] 	lookupStabilitySig:mean 	0.50793843865395
scalar Network.dyn_peer[241] 	lookupHopsSig:mean 	16.6
scalar Network.dyn_peer[242] 	lookupTimeSig:mean 	2.475
scalar Network.dyn_peer[242] 	lookupStabilitySig:mean 	0.79809340182692
scalar Network.dyn_peer[242] 	lookupHopsSig:mean 	24
scalar Network.dyn_peer[243] 	lookupTimeSig:mean 	1.25
scalar Network.dyn_peer[243] 	lookupStabilitySig:mean 	0.5311454271432
scalar Network.dyn_peer[243] 	lookupHopsSig:mean 	11.75
scalar Network.dyn_peer[244] 	lookupTimeSig:mean 	1.2833333333333
scalar Network.dyn_peer[244] 	lookupStabilitySig:mean 	0.6939840783986
scalar Network.dyn_peer[244] 	lookupHopsSig:mean 	12
scalar Network.dyn_peer[245] 	lookupTimeSig:mean 	2.8
scalar Network.dyn_peer[245] 	lookupStabilitySig:mean 	0.95052533450403
scalar Network.dyn_peer[245] 	lookupHopsSig:mean 	27.142857142857
scalar Network.dyn_peer[246] 	lookupTimeSig:mean 	2.85
scalar Network.dyn_peer[246] 	lookupStabilitySig:mean 	0.71552376262844
scalar Network.dyn_peer[246] 	lookupHopsSig:mean 	27.75
scalar Network.dyn_peer[247] 	lookupTimeSig:mean 	1.7363636363636
scalar Network.dyn_peer[247] 	lookupStabilitySig:mean 	0.83766610814597
scalar Network.dyn_peer[247] 	lookupHopsSig:mean 	16.454545454545
scalar Network.dyn_peer[248] 	lookupTimeSig:mean 	1.76
scalar Network.dyn_peer[248] 	lookupStabilitySig:mean 	0.56856332793832
scalar Network.dyn_peer[248] 	lookupHopsSig:mean 	16.8
scalar Network.dyn_peer[249] 	lookupTimeSig:mean 	1.425
scalar Network.dyn_peer[249] 	lookupStabilitySig:mean 	0.78876865655184
scalar Network.dyn_peer[249] 	lookupHopsSig:mean 	13.5
scalar Network.dyn_peer[250] 	lookupTimeSig:mean 	1.0555555555556
scalar Network.dyn_peer[250] 	lookupStabilitySig:mean 	0.77866166291965
scalar Network.dyn_peer[250] 	lookupHopsSig:mean 	9.6666666666667
scalar Network.dyn_peer[251] 	lookupTimeSig:mean 	1.8166666666667
scalar Network.dyn_peer[251] 	lookupStabilitySig:mean 	0.71656889390821
scalar Network.dyn_peer[251] 	lookupHopsSig:mean 	17.333333333333
scalar Network.dyn_peer[252] 	lookupTimeSig:mean 	1.1
scalar Network.dyn_peer[252] 	lookupStabilitySig:mean 	0.18181817233562
scalar Network.dyn_peer[252] 	lookupHopsSig:mean 	10.5
scalar Network.dyn_peer[253] 	lookupTimeSig:mean 	1.5
scalar Network.dyn_peer[253] 	lookupStabilitySig:mean 	0.90057589087842
scalar Network.dyn_peer[253] 	lookupHopsSig:mean 	14.111111111111
scalar Network.dyn_peer[254] 	lookupTimeSig:mean 	2.4
scalar Network.dyn_peer[254] 	lookupStabilitySig:mean 	0.24603174626827
scalar Network.dyn_peer[254] 	lookupHopsSig:mean 	23.5
scalar Network.dyn_peer[255] 	lookupTimeSig:mean 	2.0714285714286
scalar Network.dyn_peer[255] 	lookupStabilitySig:mean 	0.93191473837942
scalar Network.dyn_peer[255] 	lookupHopsSig:mean 	19.857142857143
scalar Network.dyn_peer[256] 	lookupTimeSig:mean 	3.775
scalar Network.dyn_peer[256] 	lookupStabilitySig:mean 	0.89841220900416
scalar Network.dyn_peer[256] 	lookupHopsSig:mean 	37
scalar Network.dyn_peer[257] 	lookupTimeSig:mean 	1.7571428571429
scalar Network.dyn_peer[257] 	lookupStabilitySig:mean 	0.76128657880638
scalar Network.dyn_peer[257] 	lookupHopsSig:mean 	16.714285714286
scalar Network.dyn_peer[258] 	lookupTimeSig:mean 	1.5666666666667
scalar Network.dyn_peer[258] 	lookupStabilitySig:mean 	0.70293243136257
scalar Network.dyn_peer[258] 	lookupHopsSig:mean 	14.833333333333
scalar Network.dyn_peer[259] 	lookupTimeSig:mean 	1.3
scalar Network.dyn_peer[259] 	lookupStabilitySig:mean 	0.79045845920013
scalar Network.dyn_peer[259] 	lookupHopsSig:mean 	12.111111111111
scalar Network.dyn_peer[260] 	lookupTimeSig:mean 	2.425
scalar Network.dyn_peer[260] 	lookupStabilitySig:mean 	0.55555389821529
scalar Network.dyn_peer[260] 	lookupHopsSig:mean 	23.5
scalar Network.dyn_peer[261] 	lookupTimeSig:mean 	1.99
scalar Network.dyn_peer[261] 	lookupStabilitySig:mean 	0.92575863180682
scalar Network.dyn_peer[261] 	lookupHopsSig:mean 	19
scalar Network.dyn_peer[262] 	lookupTimeSig:mean 	1.2666666666667
scalar Network.dyn_peer[262] 	lookupStabilitySig:mean 	0.60816844304403
scalar Network.dyn_peer[262] 	lookupHopsSig:mean 	12
scalar Network.dyn_peer[263] 	lookupTimeSig:mean 	1.74
scalar Network.dyn_peer[263] 	lookupStabilitySig:mean 	0.64333686605096
scalar Network.dyn_peer[263] 	lookupHopsSig:mean 	16.6
scalar Network.dyn_peer[264] 	lookupTimeSig:mean 	1.575
scalar Network.dyn_peer[264] 	lookupStabilitySig:mean 	0.69819804071449
scalar Network.dyn_peer[264] 	lookupHopsSig:mean 	15
scalar Network.dyn_peer[265] 	lookupTimeSig:mean 	1.175
scalar Network.dyn_peer[265] 	lookupStabilitySig:mean 	0.40803330391645
scalar Network.dyn_peer[265] 	lookupHopsSig:mean 	11
scalar Network.dyn_peer[266] 	lookupTimeSig:mean 	1.3857142857143
scalar Network.dyn_peer[266] 	lookupStabilitySig:mean 	0.72372642478773
scalar Network.dyn_peer[266] 	lookupHopsSig:mean 	13
scalar Network.dyn_peer[267] 	lookupTimeSig:mean 	2.3
scalar Network.dyn_peer[267] 	lookupStabilitySig:mean 	0.28535351157188
scalar Network.dyn_peer[267] 	lookupHopsSig:mean 	22.5
scalar Network.dyn_peer[268] 	lookupTimeSig:mean 	1.8571428571429
scalar Network.dyn_peer[268] 	lookupStabilitySig:mean 	0.88665142788419
scalar Network.dyn_peer[268] 	lookupHopsSig:mean 	17.714285714286
scalar Network.dyn_peer[269] 	lookupTimeSig:mean 	1.32
scalar Network.dyn_peer[269] 	lookupStabilitySig:mean 	0.89993198681623
scalar Network.dyn_peer[269] 	lookupHopsSig:mean 	12.3
scalar Network.dyn_peer[270] 	lookupTimeSig:mean 	1.4615384615385
scalar Network.dyn_peer[270] 	lookupStabilitySig:mean 	0.95505961166838
scalar Network.dyn_peer[270] 	lookupHopsSig:mean 	13.692307692308
scalar Network.dyn_peer[271] 	lookupTimeSig:mean 	1.3571428571429
scalar Network.dyn_peer[271] 	lookupStabilitySig:mean 	0.81362644104021
scalar Network.dyn_peer[271] 	lookupHopsSig:mean 	12.714285714286
scalar Network.dyn_peer[272] 	lookupTimeSig:mean 	1.9416666666667
scalar Network.dyn_peer[272] 	lookupStabilitySig:mean 	0.82511576583299
scalar Network.dyn_peer[272] 	lookupHopsSig:mean 	18.5
scalar Network.dyn_peer[273] 	lookupTimeSig:mean 	1.64375
scalar Network.dyn_peer[273] 	lookupStabilitySig:mean 	0.88127902534325
scalar Network.dyn_peer[273] 	lookupHopsSig:mean 	15.5
scalar Network.dyn_peer[274] 	lookupTimeSig:mean 	1.56
scalar Network.dyn_peer[274] 	lookupStabilitySig:mean 	0.67166359107941
scalar Network.dyn_peer[274] 	lookupHopsSig:mean 	14.8
scalar Network.dyn_peer[275] 	lookupTimeSig:mean 	4.2333333333333
scalar Network.dyn_peer[275] 	lookupStabilitySig:mean 	0.90439948253334
scalar Network.dyn_peer[275] 	lookupHopsSig:mean 	41.666666666667
scalar Network.dyn_peer[276] 	lookupTimeSig:mean 	2.6
scalar Network.dyn_peer[276] 	lookupStabilitySig:mean 	0.55846501793712
scalar Network.dyn_peer[276] 	lookupHopsSig:mean 	25.25
scalar Network.dyn_peer[277] 	lookupTimeSig:mean 	1.9
scalar Network.dyn_peer[277] 	lookupStabilitySig:mean 	0.94820781170645
scalar Network.dyn_peer[277] 	lookupHopsSig:mean 	18.090909090909
scalar Network.dyn_peer[278] 	lookupTimeSig:mean 	2.45
scalar Network.dyn_peer[278] 	lookupStabilitySig:mean 	0.8081337204203
scalar Network.dyn_peer[278] 	lookupHopsSig:mean 	23.75
scalar Network.dyn_peer[279] 	lookupTimeSig:mean 	1.075
scalar Network.dyn_peer[279] 	lookupStabilitySig:mean 	0.75520421541296
scalar Network.dyn_peer[279] 	lookupHopsSig:mean 	9.875
scalar Network.dyn_peer[280] 	lookupTimeSig:mean 	1.6444444444444
scalar Network.dyn_peer[280] 	lookupStabilitySig:mean 	0.92620895047569
scalar Network.dyn_peer[280] 	lookupHopsSig:mean 	15.555555555556
scalar Network.dyn_peer[281] 	lookupTimeSig:mean 	2.4
scalar Network.dyn_peer[281] 	lookupStabilitySig:mean 	0.54073439538479
scalar Network.dyn_peer[281] 	lookupHopsSig:mean 	23.25
scalar Network.dyn_peer[282] 	lookupTimeSig:mean 	3.775
scalar Network.dyn_peer[282] 	lookupStabilitySig:mean 	0.88949364144355
scalar Network.dyn_peer[282] 	lookupHopsSig:mean 	37
scalar Network.dyn_peer[283] 	lookupTimeSig:mean 	1.775
scalar Network.dyn_peer[283] 	lookupStabilitySig:mean 	0.94188790302724
scalar Network.dyn_peer[283] 	lookupHopsSig:mean 	16.875
scalar Network.dyn_peer[284] 	lookupTimeSig:mean 	2.5
scalar Network.dyn_peer[284] 	lookupStabilitySig:mean 	0.94580030244672
scalar Network.dyn_peer[284] 	lookupHopsSig:mean 	24.111111111111
scalar Network.dyn_peer[285] 	lookupTimeSig:mean 	2.0777777777778
scalar Network.dyn_peer[285] 	lookupStabilitySig:mean 	0.9318491069393
scalar Network.dyn_peer[285] 	lookupHopsSig:mean 	19.888888888889
scalar Network.dyn_peer[286] 	lookupTimeSig:mean 	1.2
scalar Network.dyn_peer[286] 	lookupStabilitySig:mean 	0.77273132931441
scalar Network.dyn_peer[286] 	lookupHopsSig:mean 	11.125
scalar Network.dyn_peer[287] 	lookupTimeSig:mean 	2.525
scalar Network.dyn_peer[287] 	lookupStabilitySig:mean 	0.88927371380851
scalar Network.dyn_peer[287] 	lookupHopsSig:mean 	24.5
scalar Network.dyn_peer[288] 	lookupTimeSig:mean 	2.5
scalar Network.dyn_peer[288] 	lookupStabilitySig:mean 	0.46416714042425
scalar Network.dyn_peer[288] 	lookupHopsSig:mean 	24.5
scalar Network.dyn_peer[289] 	lookupTimeSig:mean 	1.5
scalar Network.dyn_peer[289] 	lookupStabilitySig:mean 	0.85817163118294
scalar Network.dyn_peer[289] 	lookupHopsSig:mean 	14.142857142857
scalar Network.dyn_peer[290] 	lookupTimeSig:mean 	1.5428571428571
scalar Network.dyn_peer[290] 	lookupStabilitySig:mean 	0.70542994008533
scalar Network.dyn_peer[290] 	lookupHopsSig:mean 	14.571428571429
scalar Network.dyn_peer[291] 	lookupTimeSig:mean 	2.4666666666667
scalar Network.dyn_peer[291] 	lookupStabilitySig:mean 	0.55579990148544
scalar Network.dyn_peer[291] 	lookupHopsSig:mean 	24
scalar Network.dyn_peer[292] 	lookupTimeSig:mean 	1.7333333333333
scalar Network.dyn_peer[292] 	lookupStabilitySig:mean 	0.87134373529504
scalar Network.dyn_peer[292] 	lookupHopsSig:mean 	16.5
scalar Network.dyn_peer[293] 	lookupTimeSig:mean 	1.5125
scalar Network.dyn_peer[293] 	lookupStabilitySig:mean 	0.87895793141797
scalar Network.dyn_peer[293] 	lookupHopsSig:mean 	14.25
scalar Network.dyn_peer[294] 	lookupTimeSig:mean 	1.15
scalar Network.dyn_peer[294] 	lookupStabilitySig:mean 	0.62921041995287
scalar Network.dyn_peer[294] 	lookupHopsSig:mean 	10.75
scalar Network.dyn_peer[295] 	lookupTimeSig:mean 	2.4285714285714
scalar Network.dyn_peer[295] 	lookupStabilitySig:mean 	0.93643475829491
scalar Network.dyn_peer[295] 	lookupHopsSig:mean 	23.428571428571
scalar Network.dyn_peer[296] 	lookupTimeSig:mean 	3.575
scalar Network.dyn_peer[296] 	lookupStabilitySig:mean 	0.88064967794344
scalar Network.dyn_peer[296] 	lookupHopsSig:mean 	35
scalar Network.dyn_peer[297] 	lookupTimeSig:mean 	1.85
scalar Network.dyn_peer[297] 	lookupStabilitySig:mean 	0.56016829889268
scalar Network.dyn_peer[297] 	lookupHopsSig:mean 	17.75
scalar Network.dyn_peer[298] 	lookupTimeSig:mean 	1.6454545454545
scalar Network.dyn_peer[298] 	lookupStabilitySig:mean 	0.93609755240719
scalar Network.dyn_peer[298] 	lookupHopsSig:mean 	15.545454545455
scalar Network.dyn_peer[299] 	lookupTimeSig:mean 	2.6428571428571
scalar Network.dyn_peer[299] 	lookupStabilitySig:mean 	0.94415547618909
scalar Network.dyn_peer[299] 	lookupHopsSig:mean 	25.571428571429
scalar Network.dyn_peer[300] 	lookupTimeSig:mean 	2.0666666666667
scalar Network.dyn_peer[300] 	lookupStabilitySig:mean 	0.47833427290122
scalar Network.dyn_peer[300] 	lookupHopsSig:mean 	20
scalar Network.dyn_peer[301] 	lookupTimeSig:mean 	1.7636363636364
scalar Network.dyn_peer[301] 	lookupStabilitySig:mean 	0.95257872334597
scalar Network.dyn_peer[301] 	lookupHopsSig:mean 	16.727272727273
scalar Network.dyn_peer[302] 	lookupTimeSig:mean 	1.33
scalar Network.dyn_peer[302] 	lookupStabilitySig:mean 	0.9006808744045
scalar Network.dyn_peer[302] 	lookupHopsSig:mean 	12.4
scalar Network.dyn_peer[303] 	lookupTimeSig:mean 	1.66
scalar Network.dyn_peer[303] 	lookupStabilitySig:mean 	0.54216737896204
scalar Network.dyn_peer[303] 	lookupHopsSig:mean 	15.8
scalar Network.dyn_peer[304] 	lookupTimeSig:mean 	3
scalar Network.dyn_peer[304] 	lookupStabilitySig:mean 	0.88887751800939
scalar Network.dyn_peer[304] 	lookupHopsSig:mean 	29.25
scalar Network.dyn_peer[305] 	lookupTimeSig:mean 	2.5
scalar Network.dyn_peer[305] 	lookupStabilitySig:mean 	0.87608963698149
scalar Network.dyn_peer[305] 	lookupHopsSig:mean 	24.2
scalar Network.dyn_peer[306] 	lookupTimeSig:mean 	2.2833333333333
scalar Network.dyn_peer[306] 	lookupStabilitySig:mean 	0.87289589069163
scalar Network.dyn_peer[306] 	lookupHopsSig:mean 	22
scalar Network.dyn_peer[307] 	lookupTimeSig:mean 	2.1125
scalar Network.dyn_peer[307] 	lookupStabilitySig:mean 	0.94757980818395
scalar Network.dyn_peer[307] 	lookupHopsSig:mean 	20.25
scalar Network.dyn_peer[308] 	lookupTimeSig:mean 	2.08
scalar Network.dyn_peer[308] 	lookupStabilitySig:mean 	0.85442187264562
scalar Network.dyn_peer[308] 	lookupHopsSig:mean 	20
scalar Network.dyn_peer[309] 	lookupTimeSig:mean 	2.0571428571429
scalar Network.dyn_peer[309] 	lookupStabilitySig:mean 	0.93948359388326
scalar Network.dyn_peer[309] 	lookupHopsSig:mean 	19.714285714286
scalar Network.dyn_peer[310] 	lookupTimeSig:mean 	2.25
scalar Network.dyn_peer[310] 	lookupStabilitySig:mean 	0.75804777350277
scalar Network.dyn_peer[310] 	lookupHopsSig:mean 	21.75
scalar Network.dyn_peer[311] 	lookupTimeSig:mean 	1.7
scalar Network.dyn_peer[311] 	lookupStabilitySig:mean 	0.94535337630659
scalar Network.dyn_peer[311] 	lookupHopsSig:mean 	16.1
scalar Network.dyn_peer[312] 	lookupTimeSig:mean 	2.1428571428571
scalar Network.dyn_peer[312] 	lookupStabilitySig:mean 	0.92722738520907
scalar Network.dyn_peer[312] 	lookupHopsSig:mean 	20.571428571429
scalar Network.dyn_peer[313] 	lookupTimeSig:mean 	1.52
scalar Network.dyn_peer[313] 	lookupStabilitySig:mean 	0.67040015608072
scalar Network.dyn_peer[313] 	lookupHopsSig:mean 	14.4
scalar Network.dyn_peer[314] 	lookupTimeSig:mean 	1.0666666666667
scalar Network.dyn_peer[314] 	lookupStabilitySig:mean 	0.70129734401902
scalar Network.dyn_peer[314] 	lookupHopsSig:mean 	9.8333333333333
scalar Network.dyn_peer[315] 	lookupTimeSig:mean 	0.325
scalar Network.dyn_peer[315] 	lookupStabilitySig:mean 	0.6166666559875
scalar Network.dyn_peer[315] 	lookupHopsSig:mean 	2.5
scalar Network.dyn_peer[316] 	lookupTimeSig:mean 	0.76666666666667
scalar Network.dyn_peer[316] 	lookupStabilitySig:mean 	0.43615641196569
scalar Network.dyn_peer[316] 	lookupHopsSig:mean 	7
scalar Network.dyn_peer[317] 	lookupTimeSig:mean 	1.1428571428571
scalar Network.dyn_peer[317] 	lookupStabilitySig:mean 	0.88455027714372
scalar Network.dyn_peer[317] 	lookupHopsSig:mean 	10.571428571429
scalar Network.dyn_peer[318] 	lookupTimeSig:mean 	2.04
scalar Network.dyn_peer[318] 	lookupStabilitySig:mean 	0.70209704842418
scalar Network.dyn_peer[318] 	lookupHopsSig:mean 	19.6
scalar Network.dyn_peer[319] 	lookupTimeSig:mean 	2.675
scalar Network.dyn_peer[319] 	lookupStabilitySig:mean 	0.91261725698132
scalar Network.dyn_peer[319] 	lookupHopsSig:mean 	25.875
scalar Network.dyn_peer[320] 	lookupTimeSig:mean 	1.8625
scalar Network.dyn_peer[320] 	lookupStabilitySig:mean 	0.83433847667766
scalar Network.dyn_peer[320] 	lookupHopsSig:mean 	17.75
scalar Network.dyn_peer[321] 	lookupTimeSig:mean 	3.575
scalar Network.dyn_peer[321] 	lookupStabilitySig:mean 	0.92306725506205
scalar Network.dyn_peer[321] 	lookupHopsSig:mean 	35
scalar Network.dyn_peer[322] 	lookupTimeSig:mean 	1.16
scalar Network.dyn_peer[322] 	lookupStabilitySig:mean 	0.62555629312992
scalar Network.dyn_peer[322] 	lookupHopsSig:mean 	10.8
scalar Network.dyn_peer[323] 	lookupTimeSig:mean 	1.0333333333333
scalar Network.dyn_peer[323] 	lookupStabilitySig:mean 	0.83974389716362
scalar Network.dyn_peer[323] 	lookupHopsSig:mean 	9.4444444444444
scalar Network.dyn_peer[324] 	lookupTimeSig:mean 	1.8666666666667
scalar Network.dyn_peer[324] 	lookupStabilitySig:mean 	0.72089532762766
scalar Network.dyn_peer[324] 	lookupHopsSig:mean 	18
scalar Network.dyn_peer[325] 	lookupTimeSig:mean 	1.675
scalar Network.dyn_peer[325] 	lookupStabilitySig:mean 	0.57274634763598
scalar Network.dyn_peer[325] 	lookupHopsSig:mean 	16
scalar Network.dyn_peer[326] 	lookupTimeSig:mean 	1.3888888888889
scalar Network.dyn_peer[326] 	lookupStabilitySig:mean 	0.92172028217465
scalar Network.dyn_peer[326] 	lookupHopsSig:mean 	13
scalar Network.dyn_peer[327] 	lookupTimeSig:mean 	1.2333333333333
scalar Network.dyn_peer[327] 	lookupStabilitySig:mean 	0.52517116069794
scalar Network.dyn_peer[327] 	lookupHopsSig:mean 	11.666666666667
scalar Network.dyn_peer[328] 	lookupTimeSig:mean 	2.05
scalar Network.dyn_peer[328] 	lookupStabilitySig:mean 	0.87417785761257
scalar Network.dyn_peer[328] 	lookupHopsSig:mean 	19.666666666667
scalar Network.dyn_peer[329] 	lookupTimeSig:mean 	1.775
scalar Network.dyn_peer[329] 	lookupStabilitySig:mean 	0.63250912725925
scalar Network.dyn_peer[329] 	lookupHopsSig:mean 	17
scalar Network.dyn_peer[330] 	lookupTimeSig:mean 	1.8875
scalar Network.dyn_peer[330] 	lookupStabilitySig:mean 	0.93555240920978
scalar Network.dyn_peer[330] 	lookupHopsSig:mean 	18
scalar Network.dyn_peer[331] 	lookupTimeSig:mean 	2.325
scalar Network.dyn_peer[331] 	lookupStabilitySig:mean 	0.62520538410172
scalar Network.dyn_peer[331] 	lookupHopsSig:mean 	22.5
scalar Network.dyn_peer[332] 	lookupTimeSig:mean 	2.4090909090909
scalar Network.dyn_peer[332] 	lookupStabilitySig:mean 	0.94347002899105
scalar Network.dyn_peer[332] 	lookupHopsSig:mean 	23.181818181818
scalar Network.dyn_peer[333] 	lookupTimeSig:mean 	2.2818181818182
scalar Network.dyn_peer[333] 	lookupStabilitySig:mean 	0.9576657037674
scalar Network.dyn_peer[333] 	lookupHopsSig:mean 	21.909090909091
scalar Network.dyn_peer[334] 	lookupTimeSig:mean 	1.9142857142857
scalar Network.dyn_peer[334] 	lookupStabilitySig:mean 	0.84783380026264
scalar Network.dyn_peer[334] 	lookupHopsSig:mean 	18.285714285714
scalar Network.dyn_peer[335] 	lookupTimeSig:mean 	1.45
scalar Network.dyn_peer[335] 	lookupStabilitySig:mean 	0.78957129078917
scalar Network.dyn_peer[335] 	lookupHopsSig:mean 	13.6
scalar Network.dyn_peer[336] 	lookupTimeSig:mean 	1.6
scalar Network.dyn_peer[336] 	lookupStabilitySig:mean 	0.71261585069199
scalar Network.dyn_peer[336] 	lookupHopsSig:mean 	15.166666666667
scalar Network.dyn_peer[337] 	lookupTimeSig:mean 	2.125
scalar Network.dyn_peer[337] 	lookupStabilitySig:mean 	0.9419410105329
scalar Network.dyn_peer[337] 	lookupHopsSig:mean 	20.375
scalar Network.dyn_peer[338] 	lookupTimeSig:mean 	1.2777777777778
scalar Network.dyn_peer[338] 	lookupStabilitySig:mean 	0.81681121492551
scalar Network.dyn_peer[338] 	lookupHopsSig:mean 	11.888888888889
scalar Network.dyn_peer[339] 	lookupTimeSig:mean 	1.49
scalar Network.dyn_peer[339] 	lookupStabilitySig:mean 	0.93315864540637
scalar Network.dyn_peer[339] 	lookupHopsSig:mean 	14
scalar Network.dyn_peer[340] 	lookupTimeSig:mean 	1.5285714285714
scalar Network.dyn_peer[340] 	lookupStabilitySig:mean 	0.76047616718071
scalar Network.dyn_peer[340] 	lookupHopsSig:mean 	14.428571428571
scalar Network.dyn_peer[341] 	lookupTimeSig:mean 	1.9833333333333
scalar Network.dyn_peer[341] 	lookupStabilitySig:mean 	0.94555251773757
scalar Network.dyn_peer[341] 	lookupHopsSig:mean 	18.916666666667
scalar Network.dyn_peer[342] 	lookupTimeSig:mean 	3.35
scalar Network.dyn_peer[342] 	lookupStabilitySig:mean 	0.90026488993317
scalar Network.dyn_peer[342] 	lookupHopsSig:mean 	32.75
scalar Network.dyn_peer[343] 	lookupTimeSig:mean 	1.4333333333333
scalar Network.dyn_peer[343] 	lookupStabilitySig:mean 	0.6985370858262
scalar Network.dyn_peer[343] 	lookupHopsSig:mean 	13.5
scalar Network.dyn_peer[344] 	lookupTimeSig:mean 	1.3428571428571
scalar Network.dyn_peer[344] 	lookupStabilitySig:mean 	0.90678209132914
scalar Network.dyn_peer[344] 	lookupHopsSig:mean 	12.5
scalar Network.dyn_peer[345] 	lookupTimeSig:mean 	1.1333333333333
scalar Network.dyn_peer[345] 	lookupStabilitySig:mean 	0.40862572193146
scalar Network.dyn_peer[345] 	lookupHopsSig:mean 	10.666666666667
scalar Network.dyn_peer[346] 	lookupTimeSig:mean 	1.6142857142857
scalar Network.dyn_peer[346] 	lookupStabilitySig:mean 	0.7330997767193
scalar Network.dyn_peer[346] 	lookupHopsSig:mean 	15.285714285714
scalar Network.dyn_peer[347] 	lookupTimeSig:mean 	1.48
scalar Network.dyn_peer[347] 	lookupStabilitySig:mean 	0.63530352376401
scalar Network.dyn_peer[347] 	lookupHopsSig:mean 	14
scalar Network.dyn_peer[348] 	lookupTimeSig:mean 	2.5333333333333
scalar Network.dyn_peer[348] 	lookupStabilitySig:mean 	0.93080321257003
scalar Network.dyn_peer[348] 	lookupHopsSig:mean 	24.5
scalar Network.dyn_peer[349] 	lookupTimeSig:mean 	1.3
scalar Network.dyn_peer[349] 	lookupStabilitySig:mean 	0.61297036707401
scalar Network.dyn_peer[349] 	lookupHopsSig:mean 	12.2
scalar Network.dyn_peer[350] 	lookupTimeSig:mean 	1.8714285714286
scalar Network.dyn_peer[350] 	lookupStabilitySig:mean 	0.88598674256355
scalar Network.dyn_peer[350] 	lookupHopsSig:mean 	17.857142857143
scalar Network.dyn_peer[351] 	lookupTimeSig:mean 	2.0333333333333
scalar Network.dyn_peer[351] 	lookupStabilitySig:mean 	0.72438279073685
scalar Network.dyn_peer[351] 	lookupHopsSig:mean 	19.5
scalar Network.dyn_peer[352] 	lookupTimeSig:mean 	1.5
scalar Network.dyn_peer[352] 	lookupStabilitySig:mean 	0.49636363983154
scalar Network.dyn_peer[352] 	lookupHopsSig:mean 	14.5
scalar Network.dyn_peer[353] 	lookupTimeSig:mean 	2.8
scalar Network.dyn_peer[353] 	lookupStabilitySig:mean 	0.61084648221731
scalar Network.dyn_peer[353] 	lookupHopsSig:mean 	27.25
scalar Network.dyn_peer[354] 	lookupTimeSig:mean 	2.6285714285714
scalar Network.dyn_peer[354] 	lookupStabilitySig:mean 	0.95578716635438
scalar Network.dyn_peer[354] 	lookupHopsSig:mean 	25.428571428571
scalar Network.dyn_peer[355] 	lookupTimeSig:mean 	1.6666666666667
scalar Network.dyn_peer[355] 	lookupStabilitySig:mean 	0.95096297457349
scalar Network.dyn_peer[355] 	lookupHopsSig:mean 	15.75
scalar Network.dyn_peer[356] 	lookupTimeSig:mean 	1.825
scalar Network.dyn_peer[356] 	lookupStabilitySig:mean 	0.61133659165353
scalar Network.dyn_peer[356] 	lookupHopsSig:mean 	17.5
scalar Network.dyn_peer[357] 	lookupTimeSig:mean 	1.1
scalar Network.dyn_peer[357] 	lookupStabilitySig:mean 	0.52552274242043
scalar Network.dyn_peer[357] 	lookupHopsSig:mean 	10.25
scalar Network.dyn_peer[358] 	lookupTimeSig:mean 	4.5
scalar Network.dyn_peer[358] 	lookupStabilitySig:mean 	0.85900561138988
scalar Network.dyn_peer[358] 	lookupHopsSig:mean 	44.333333333333
scalar Network.dyn_peer[359] 	lookupTimeSig:mean 	2.4333333333333
scalar Network.dyn_peer[359] 	lookupStabilitySig:mean 	0.8648987368991
scalar Network.dyn_peer[359] 	lookupHopsSig:mean 	23.5
scalar Network.dyn_peer[360] 	lookupTimeSig:mean 	2.2875
scalar Network.dyn_peer[360] 	lookupStabilitySig:mean 	0.9257120443508
scalar Network.dyn_peer[360] 	lookupHopsSig:mean 	22
scalar Network.dyn_peer[361] 	lookupTimeSig:mean 	1.2333333333333
scalar Network.dyn_peer[361] 	lookupStabilitySig:mean 	0.72760521620512
scalar Network.dyn_peer[361] 	lookupHopsSig:mean 	11.5
scalar Network.dyn_peer[362] 	lookupTimeSig:mean 	2.325
scalar Network.dyn_peer[362] 	lookupStabilitySig:mean 	0.58199625089765
scalar Network.dyn_peer[362] 	lookupHopsSig:mean 	22.5
scalar Network.dyn_peer[363] 	lookupTimeSig:mean 	2.925
scalar Network.dyn_peer[363] 	lookupStabilitySig:mean 	0.89254081901163
scalar Network.dyn_peer[363] 	lookupHopsSig:mean 	28.5
scalar Network.dyn_peer[364] 	lookupTimeSig:mean 	3.5
scalar Network.dyn_peer[364] 	lookupStabilitySig:mean 	0.6671987446025
scalar Network.dyn_peer[364] 	lookupHopsSig:mean 	34.25
scalar Network.dyn_peer[365] 	lookupTimeSig:mean 	1.1
scalar Network.dyn_peer[365] 	lookupStabilitySig:mean 	0.48278455808759
scalar Network.dyn_peer[365] 	lookupHopsSig:mean 	10.25
scalar Network.dyn_peer[366] 	lookupTimeSig:mean 	1.425
scalar Network.dyn_peer[366] 	lookupStabilitySig:mean 	0.58165708649904
scalar Network.dyn_peer[366] 	lookupHopsSig:mean 	13.5
scalar Network.dyn_peer[367] 	lookupTimeSig:mean 	1.8
scalar Network.dyn_peer[367] 	lookupStabilitySig:mean 	0.7317012110725
scalar Network.dyn_peer[367] 	lookupHopsSig:mean 	17.166666666667
scalar Network.dyn_peer[368] 	lookupTimeSig:mean 	1.8
scalar Network.dyn_peer[368] 	lookupStabilitySig:mean 	0.68072895854712
scalar Network.dyn_peer[368] 	lookupHopsSig:mean 	17.2
scalar Network.dyn_peer[369] 	lookupTimeSig:mean 	1.95
scalar Network.dyn_peer[369] 	lookupStabilitySig:mean 	0.58972993679345
scalar Network.dyn_peer[369] 	lookupHopsSig:mean 	18.75
scalar Network.dyn_peer[370] 	lookupTimeSig:mean 	1.0571428571429
scalar Network.dyn_peer[370] 	lookupStabilitySig:mean 	0.72977450117469
scalar Network.dyn_peer[370] 	lookupHopsSig:mean 	9.7142857142857
scalar Network.dyn_peer[371] 	lookupTimeSig:mean 	1.7571428571429
scalar Network.dyn_peer[371] 	lookupStabilitySig:mean 	0.72824124832238
scalar Network.dyn_peer[371] 	lookupHopsSig:mean 	16.714285714286
scalar Network.dyn_peer[372] 	lookupTimeSig:mean 	0.5
scalar Network.dyn_peer[372] 	lookupStabilitySig:mean 	0.52375732176006
scalar Network.dyn_peer[372] 	lookupHopsSig:mean 	4.25
scalar Network.dyn_peer[373] 	lookupTimeSig:mean 	1.025
scalar Network.dyn_peer[373] 	lookupStabilitySig:mean 	0.53702501161024
scalar Network.dyn_peer[373] 	lookupHopsSig:mean 	9.5
scalar Network.dyn_peer[374] 	lookupTimeSig:mean 	1.6666666666667
scalar Network.dyn_peer[374] 	lookupStabilitySig:mean 	0.75568690854642
scalar Network.dyn_peer[374] 	lookupHopsSig:mean 	15.777777777778
scalar Network.dyn_peer[375] 	lookupTimeSig:mean 	1.6
scalar Network.dyn_peer[375] 	lookupStabilitySig:mean 	0.84096928462386
scalar Network.dyn_peer[375] 	lookupHopsSig:mean 	15.2
scalar Network.dyn_peer[376] 	lookupTimeSig:mean 	2.2
scalar Network.dyn_peer[376] 	lookupStabilitySig:mean 	0.29410047084093
scalar Network.dyn_peer[376] 	lookupHopsSig:mean 	21.5
scalar Network.dyn_peer[377] 	lookupTimeSig:mean 	2.6666666666667
scalar Network.dyn_peer[377] 	lookupStabilitySig:mean 	0.92605462654804
scalar Network.dyn_peer[377] 	lookupHopsSig:mean 	25.833333333333
scalar Network.dyn_peer[378] 	lookupTimeSig:mean 	3.0857142857143
scalar Network.dyn_peer[378] 	lookupStabilitySig:mean 	0.93907909467816
scalar Network.dyn_peer[378] 	lookupHopsSig:mean 	30
scalar Network.dyn_peer[379] 	lookupTimeSig:mean 	0.87777777777778
scalar Network.dyn_peer[379] 	lookupStabilitySig:mean 	0.78769242246118
scalar Network.dyn_peer[379] 	lookupHopsSig:mean 	7.8888888888889
scalar Network.dyn_peer[380] 	lookupTimeSig:mean 	2.225
scalar Network.dyn_peer[380] 	lookupStabilitySig:mean 	0.84858567244373
scalar Network.dyn_peer[380] 	lookupHopsSig:mean 	21.375
scalar Network.dyn_peer[381] 	lookupTimeSig:mean 	2.8
scalar Network.dyn_peer[381] 	lookupStabilitySig:mean 	0.86400280706584
scalar Network.dyn_peer[381] 	lookupHopsSig:mean 	27.25
scalar Network.dyn_peer[382] 	lookupTimeSig:mean 	1.0888888888889
scalar Network.dyn_peer[382] 	lookupStabilitySig:mean 	0.90461399468283
scalar Network.dyn_peer[382] 	lookupHopsSig:mean 	10
scalar Network.dyn_peer[383] 	lookupTimeSig:mean 	2.2923076923077
scalar Network.dyn_peer[383] 	lookupStabilitySig:mean 	0.95583820622414
scalar Network.dyn_peer[383] 	lookupHopsSig:mean 	22
scalar Network.dyn_peer[384] 	lookupTimeSig:mean 	1.15
scalar Network.dyn_peer[384] 	lookupStabilitySig:mean 	0.62459605559707
scalar Network.dyn_peer[384] 	lookupHopsSig:mean 	10.75
scalar Network.dyn_peer[385] 	lookupTimeSig:mean 	2.6
scalar Network.dyn_peer[385] 	lookupStabilitySig:mean 	0.55732391215861
scalar Network.dyn_peer[385] 	lookupHopsSig:mean 	25.25
scalar Network.dyn_peer[386] 	lookupTimeSig:mean 	1.9066666666667
scalar Network.dyn_peer[386] 	lookupStabilitySig:mean 	0.95981086483225
scalar Network.dyn_peer[386] 	lookupHopsSig:mean 	18.133333333333
scalar Network.dyn_peer[387] 	lookupTimeSig:mean 	1.6666666666667
scalar Network.dyn_peer[387] 	lookupStabilitySig:mean 	0.88355354395592
scalar Network.dyn_peer[387] 	lookupHopsSig:mean 	15.777777777778
scalar Network.dyn_peer[388] 	lookupTimeSig:mean 	2.5
scalar Network.dyn_peer[388] 	lookupStabilitySig:mean 	0.61178860813379
scalar Network.dyn_peer[388] 	lookupHopsSig:mean 	24.5
scalar Network.dyn_peer[389] 	lookupTimeSig:mean 	2.64
scalar Network.dyn_peer[389] 	lookupStabilitySig:mean 	0.890875569731
scalar Network.dyn_peer[389] 	lookupHopsSig:mean 	25.6
scalar Network.dyn_peer[390] 	lookupTimeSig:mean 	2.025
scalar Network.dyn_peer[390] 	lookupStabilitySig:mean 	0.55950478138402
scalar Network.dyn_peer[390] 	lookupHopsSig:mean 	19.5
scalar Network.dyn_peer[391] 	lookupTimeSig:mean 	2.2333333333333
scalar Network.dyn_peer[391] 	lookupStabilitySig:mean 	0.90880204768231
scalar Network.dyn_peer[391] 	lookupHopsSig:mean 	21.5
scalar Network.dyn_peer[392] 	lookupTimeSig:mean 	1.7777777777778
scalar Network.dyn_peer[392] 	lookupStabilitySig:mean 	0.94207947970264
scalar Network.dyn_peer[392] 	lookupHopsSig:mean 	16.888888888889
scalar Network.dyn_peer[393] 	lookupTimeSig:mean 	1.9111111111111
scalar Network.dyn_peer[393] 	lookupStabilitySig:mean 	0.93444958712078
scalar Network.dyn_peer[393] 	lookupHopsSig:mean 	18.222222222222
scalar Network.dyn_peer[394] 	lookupTimeSig:mean 	1.8285714285714
scalar Network.dyn_peer[394] 	lookupStabilitySig:mean 	0.73895569864128
scalar Network.dyn_peer[394] 	lookupHopsSig:mean 	17.428571428571
scalar Network.dyn_peer[395] 	lookupTimeSig:mean 	2.0111111111111
scalar Network.dyn_peer[395] 	lookupStabilitySig:mean 	0.94949456061133
scalar Network.dyn_peer[395] 	lookupHopsSig:mean 	19.222222222222
scalar Network.dyn_peer[396] 	lookupTimeSig:mean 	2.5666666666667
scalar Network.dyn_peer[396] 	lookupStabilitySig:mean 	0.75465224683285
scalar Network.dyn_peer[396] 	lookupHopsSig:mean 	25
scalar Network.dyn_peer[397] 	lookupTimeSig:mean 	2.45
scalar Network.dyn_peer[397] 	lookupStabilitySig:mean 	0.69697288423777
scalar Network.dyn_peer[397] 	lookupHopsSig:mean 	24
scalar Network.dyn_peer[398] 	lookupTimeSig:mean 	3.4666666666667
scalar Network.dyn_peer[398] 	lookupStabilitySig:mean 	0.89028812944889
scalar Network.dyn_peer[398] 	lookupHopsSig:mean 	34
scalar Network.dyn_peer[399] 	lookupTimeSig:mean 	1.9090909090909
scalar Network.dyn_peer[399] 	lookupStabilitySig:mean 	0.97470224976794
scalar Network.dyn_peer[399] 	lookupHopsSig:mean 	18.181818181818
scalar Network.dyn_peer[400] 	lookupTimeSig:mean 	2.6
scalar Network.dyn_peer[400] 	lookupStabilitySig:mean 	0.84040582850575
scalar Network.dyn_peer[400] 	lookupHopsSig:mean 	25.2
scalar Network.dyn_peer[401] 	lookupTimeSig:mean 	2.74
scalar Network.dyn_peer[401] 	lookupStabilitySig:mean 	0.82099709920585
scalar Network.dyn_peer[401] 	lookupHopsSig:mean 	26.6
scalar Network.dyn_peer[402] 	lookupTimeSig:mean 	2.2714285714286
scalar Network.dyn_peer[402] 	lookupStabilitySig:mean 	0.93765863503462
scalar Network.dyn_peer[402] 	lookupHopsSig:mean 	21.857142857143
scalar Network.dyn_peer[403] 	lookupTimeSig:mean 	2.1
scalar Network.dyn_peer[403] 	lookupStabilitySig:mean 	0.93664057060544
scalar Network.dyn_peer[403] 	lookupHopsSig:mean 	20.142857142857
scalar Network.dyn_peer[404] 	lookupTimeSig:mean 	2.5
scalar Network.dyn_peer[404] 	lookupStabilitySig:mean 	0.94929102004971
scalar Network.dyn_peer[404] 	lookupHopsSig:mean 	24.125
scalar Network.dyn_peer[405] 	lookupTimeSig:mean 	1.825
scalar Network.dyn_peer[405] 	lookupStabilitySig:mean 	0.58494980074465
scalar Network.dyn_peer[405] 	lookupHopsSig:mean 	17.5
scalar Network.dyn_peer[406] 	lookupTimeSig:mean 	2.45
scalar Network.dyn_peer[406] 	lookupStabilitySig:mean 	0.83686028793454
scalar Network.dyn_peer[406] 	lookupHopsSig:mean 	23.75
scalar Network.dyn_peer[407] 	lookupTimeSig:mean 	0.84
scalar Network.dyn_peer[407] 	lookupStabilitySig:mean 	0.71659499853849
scalar Network.dyn_peer[407] 	lookupHopsSig:mean 	7.6
scalar Network.dyn_peer[408] 	lookupTimeSig:mean 	1.575
scalar Network.dyn_peer[408] 	lookupStabilitySig:mean 	0.52410205081105
scalar Network.dyn_peer[408] 	lookupHopsSig:mean 	15
scalar Network.dyn_peer[409] 	lookupTimeSig:mean 	2.08
scalar Network.dyn_peer[409] 	lookupStabilitySig:mean 	0.70170245030895
scalar Network.dyn_peer[409] 	lookupHopsSig:mean 	20
scalar Network.dyn_peer[410] 	lookupTimeSig:mean 	1.9666666666667
scalar Network.dyn_peer[410] 	lookupStabilitySig:mean 	0.45091829200586
scalar Network.dyn_peer[410] 	lookupHopsSig:mean 	19
scalar Network.dyn_peer[411] 	lookupTimeSig:mean 	1.9
scalar Network.dyn_peer[411] 	lookupStabilitySig:mean 	0.70581261068583
scalar Network.dyn_peer[411] 	lookupHopsSig:mean 	18.25
scalar Network.dyn_peer[412] 	lookupTimeSig:mean 	1.8111111111111
scalar Network.dyn_peer[412] 	lookupStabilitySig:mean 	0.78914144241975
scalar Network.dyn_peer[412] 	lookupHopsSig:mean 	17.222222222222
scalar Network.dyn_peer[413] 	lookupTimeSig:mean 	1.85
scalar Network.dyn_peer[413] 	lookupStabilitySig:mean 	0.90040028648218
scalar Network.dyn_peer[413] 	lookupHopsSig:mean 	17.625
scalar Network.dyn_peer[414] 	lookupTimeSig:mean 	1.075
scalar Network.dyn_peer[414] 	lookupStabilitySig:mean 	0.74993823934346
scalar Network.dyn_peer[414] 	lookupHopsSig:mean 	9.875
scalar Network.dyn_peer[415] 	lookupTimeSig:mean 	1.3625
scalar Network.dyn_peer[415] 	lookupStabilitySig:mean 	0.89860923110973
scalar Network.dyn_peer[415] 	lookupHopsSig:mean 	12.75
scalar Network.dyn_peer[416] 	lookupTimeSig:mean 	3.8
scalar Network.dyn_peer[416] 	lookupStabilitySig:mean 	0.45758002499739
scalar Network.dyn_peer[416] 	lookupHopsSig:mean 	37.333333333333
scalar Network.dyn_peer[417] 	lookupTimeSig:mean 	1.85
scalar Network.dyn_peer[417] 	lookupStabilitySig:mean 	0.39743589609861
scalar Network.dyn_peer[417] 	lookupHopsSig:mean 	18
scalar Network.dyn_peer[418] 	lookupTimeSig:mean 	1.9714285714286
scalar Network.dyn_peer[418] 	lookupStabilitySig:mean 	0.88894266814792
scalar Network.dyn_peer[418] 	lookupHopsSig:mean 	18.857142857143
scalar Network.dyn_peer[419] 	lookupTimeSig:mean 	1.43
scalar Network.dyn_peer[419] 	lookupStabilitySig:mean 	0.84165839091875
scalar Network.dyn_peer[419] 	lookupHopsSig:mean 	13.4
scalar Network.dyn_peer[420] 	lookupTimeSig:mean 	1.0111111111111
[...]
scalar Network.dyn_peer[895] 	lookupStabilitySig:mean 	0.95541181284576
scalar Network.dyn_peer[895] 	lookupHopsSig:mean 	18.153846153846
scalar Network.dyn_peer[896] 	lookupTimeSig:mean 	2.2
scalar Network.dyn_peer[896] 	lookupStabilitySig:mean 	0.48539841175079
scalar Network.dyn_peer[896] 	lookupHopsSig:mean 	21.5
scalar Network.dyn_peer[897] 	lookupTimeSig:mean 	1.2
scalar Network.dyn_peer[897] 	lookupStabilitySig:mean 	0.81693433810558
scalar Network.dyn_peer[897] 	lookupHopsSig:mean 	11.142857142857
scalar Network.dyn_peer[898] 	lookupTimeSig:mean 	1.95
scalar Network.dyn_peer[898] 	lookupStabilitySig:mean 	0.96361018533935
scalar Network.dyn_peer[898] 	lookupHopsSig:mean 	18.5625
scalar Network.dyn_peer[899] 	lookupTimeSig:mean 	3.6
scalar Network.dyn_peer[899] 	lookupStabilitySig:mean 	0.73839194575946
scalar Network.dyn_peer[899] 	lookupHopsSig:mean 	35.333333333333
scalar Network.dyn_peer[900] 	lookupTimeSig:mean 	2.2666666666667
scalar Network.dyn_peer[900] 	lookupStabilitySig:mean 	0.76560102403164
scalar Network.dyn_peer[900] 	lookupHopsSig:mean 	21.833333333333
scalar Network.dyn_peer[901] 	lookupTimeSig:mean 	4.9
scalar Network.dyn_peer[901] 	lookupStabilitySig:mean 	0.76917499676347
scalar Network.dyn_peer[901] 	lookupHopsSig:mean 	48.5
scalar Network.dyn_peer[902] 	lookupTimeSig:mean 	2.2857142857143
scalar Network.dyn_peer[902] 	lookupStabilitySig:mean 	0.88870357309601
scalar Network.dyn_peer[902] 	lookupHopsSig:mean 	22
scalar Network.dyn_peer[903] 	lookupTimeSig:mean 	2.3
scalar Network.dyn_peer[903] 	lookupStabilitySig:mean 	0.93275265023112
scalar Network.dyn_peer[903] 	lookupHopsSig:mean 	22.142857142857
scalar Network.dyn_peer[904] 	lookupTimeSig:mean 	2.08
scalar Network.dyn_peer[904] 	lookupStabilitySig:mean 	0.85311976373196
scalar Network.dyn_peer[904] 	lookupHopsSig:mean 	20
scalar Network.dyn_peer[905] 	lookupTimeSig:mean 	3.5333333333333
scalar Network.dyn_peer[905] 	lookupStabilitySig:mean 	0.86568229397138
scalar Network.dyn_peer[905] 	lookupHopsSig:mean 	34.666666666667
scalar Network.dyn_peer[906] 	lookupTimeSig:mean 	1.7
scalar Network.dyn_peer[906] 	lookupStabilitySig:mean 	0.92362502372513
scalar Network.dyn_peer[906] 	lookupHopsSig:mean 	16.111111111111
scalar Network.dyn_peer[907] 	lookupTimeSig:mean 	1.5
scalar Network.dyn_peer[907] 	lookupStabilitySig:mean 	0.897266427055
scalar Network.dyn_peer[907] 	lookupHopsSig:mean 	14.142857142857
scalar Network.dyn_peer[908] 	lookupTimeSig:mean 	1.25
scalar Network.dyn_peer[908] 	lookupStabilitySig:mean 	0.83616722421721
scalar Network.dyn_peer[908] 	lookupHopsSig:mean 	11.625
scalar Network.dyn_peer[909] 	lookupTimeSig:mean 	1.4076923076923
scalar Network.dyn_peer[909] 	lookupStabilitySig:mean 	0.93734315893828
scalar Network.dyn_peer[909] 	lookupHopsSig:mean 	13.153846153846
scalar Network.dyn_peer[910] 	lookupTimeSig:mean 	2.3333333333333
scalar Network.dyn_peer[910] 	lookupStabilitySig:mean 	0.92109069476525
scalar Network.dyn_peer[910] 	lookupHopsSig:mean 	22.5
scalar Network.dyn_peer[911] 	lookupTimeSig:mean 	3.225
scalar Network.dyn_peer[911] 	lookupStabilitySig:mean 	0.90452290931717
scalar Network.dyn_peer[911] 	lookupHopsSig:mean 	31.5
scalar Network.dyn_peer[912] 	lookupTimeSig:mean 	2.05
scalar Network.dyn_peer[912] 	lookupStabilitySig:mean 	0.95163943609223
scalar Network.dyn_peer[912] 	lookupHopsSig:mean 	19.6
scalar Network.dyn_peer[913] 	lookupTimeSig:mean 	1.9
scalar Network.dyn_peer[913] 	lookupStabilitySig:mean 	0.88939231101956
scalar Network.dyn_peer[913] 	lookupHopsSig:mean 	18.142857142857
scalar Network.dyn_peer[914] 	lookupTimeSig:mean 	2.7
scalar Network.dyn_peer[914] 	lookupStabilitySig:mean 	0.91240056836978
scalar Network.dyn_peer[914] 	lookupHopsSig:mean 	26.25
scalar Network.dyn_peer[915] 	lookupTimeSig:mean 	2.35
scalar Network.dyn_peer[915] 	lookupStabilitySig:mean 	0.42587875574827
scalar Network.dyn_peer[915] 	lookupHopsSig:mean 	23
scalar Network.dyn_peer[916] 	lookupTimeSig:mean 	1.57
scalar Network.dyn_peer[916] 	lookupStabilitySig:mean 	0.92028379151598
scalar Network.dyn_peer[916] 	lookupHopsSig:mean 	14.8
scalar Network.dyn_peer[917] 	lookupTimeSig:mean 	2.0833333333333
scalar Network.dyn_peer[917] 	lookupStabilitySig:mean 	0.87747588039686
scalar Network.dyn_peer[917] 	lookupHopsSig:mean 	20
scalar Network.dyn_peer[918] 	lookupTimeSig:mean 	2.4571428571429
scalar Network.dyn_peer[918] 	lookupStabilitySig:mean 	0.92840860804011
scalar Network.dyn_peer[918] 	lookupHopsSig:mean 	23.714285714286
scalar Network.dyn_peer[919] 	lookupTimeSig:mean 	1.9
scalar Network.dyn_peer[919] 	lookupStabilitySig:mean 	0.75559601001441
scalar Network.dyn_peer[919] 	lookupHopsSig:mean 	18.5
scalar Network.dyn_peer[920] 	lookupTimeSig:mean 	0.73157894736842
scalar Network.dyn_peer[920] 	lookupStabilitySig:mean 	0.92943651530598
scalar Network.dyn_peer[920] 	lookupHopsSig:mean 	6.3684210526316
scalar Network.dyn_peer[921] 	lookupTimeSig:mean 	3.1666666666667
scalar Network.dyn_peer[921] 	lookupStabilitySig:mean 	0.79724121838808
scalar Network.dyn_peer[921] 	lookupHopsSig:mean 	31
scalar Network.dyn_peer[922] 	lookupTimeSig:mean 	1.4666666666667
scalar Network.dyn_peer[922] 	lookupStabilitySig:mean 	0.77533807232976
scalar Network.dyn_peer[922] 	lookupHopsSig:mean 	13.833333333333
scalar Network.dyn_peer[923] 	lookupTimeSig:mean 	1.6
scalar Network.dyn_peer[923] 	lookupStabilitySig:mean 	0.74421649798751
scalar Network.dyn_peer[923] 	lookupHopsSig:mean 	15.5
scalar Network.dyn_peer[924] 	lookupTimeSig:mean 	1.2571428571429
scalar Network.dyn_peer[924] 	lookupStabilitySig:mean 	0.83452464586922
scalar Network.dyn_peer[924] 	lookupHopsSig:mean 	11.714285714286
scalar Network.dyn_peer[925] 	lookupTimeSig:mean 	3.1
scalar Network.dyn_peer[925] 	lookupStabilitySig:mean 	0.66515212133527
scalar Network.dyn_peer[925] 	lookupHopsSig:mean 	30.25
scalar Network.dyn_peer[926] 	lookupTimeSig:mean 	3.2666666666667
scalar Network.dyn_peer[926] 	lookupStabilitySig:mean 	0.9139686304455
scalar Network.dyn_peer[926] 	lookupHopsSig:mean 	32
scalar Network.dyn_peer[927] 	lookupTimeSig:mean 	1.6
scalar Network.dyn_peer[927] 	lookupStabilitySig:mean 	0.84800176173449
scalar Network.dyn_peer[927] 	lookupHopsSig:mean 	15.2
scalar Network.dyn_peer[928] 	lookupTimeSig:mean 	2.04
scalar Network.dyn_peer[928] 	lookupStabilitySig:mean 	0.93927900684066
scalar Network.dyn_peer[928] 	lookupHopsSig:mean 	19.5
scalar Network.dyn_peer[929] 	lookupTimeSig:mean 	1.925
scalar Network.dyn_peer[929] 	lookupStabilitySig:mean 	0.8445175983943
scalar Network.dyn_peer[929] 	lookupHopsSig:mean 	18.5
scalar Network.dyn_peer[930] 	lookupTimeSig:mean 	2.175
scalar Network.dyn_peer[930] 	lookupStabilitySig:mean 	0.85965889459476
scalar Network.dyn_peer[930] 	lookupHopsSig:mean 	21
scalar Network.dyn_peer[931] 	lookupTimeSig:mean 	3.0333333333333
scalar Network.dyn_peer[931] 	lookupStabilitySig:mean 	0.86331300313274
scalar Network.dyn_peer[931] 	lookupHopsSig:mean 	29.666666666667
scalar Network.dyn_peer[932] 	lookupTimeSig:mean 	3.15
scalar Network.dyn_peer[932] 	lookupStabilitySig:mean 	0.71276663988829
scalar Network.dyn_peer[932] 	lookupHopsSig:mean 	31
scalar Network.dyn_peer[933] 	lookupTimeSig:mean 	1.8333333333333
scalar Network.dyn_peer[933] 	lookupStabilitySig:mean 	0.95236062579271
scalar Network.dyn_peer[933] 	lookupHopsSig:mean 	17.444444444444
scalar Network.dyn_peer[934] 	lookupTimeSig:mean 	1.05
scalar Network.dyn_peer[934] 	lookupStabilitySig:mean 	0.76226553755502
scalar Network.dyn_peer[934] 	lookupHopsSig:mean 	9.6666666666667
scalar Network.dyn_peer[935] 	lookupTimeSig:mean 	3
scalar Network.dyn_peer[935] 	lookupStabilitySig:mean 	0.7564157769084
scalar Network.dyn_peer[935] 	lookupHopsSig:mean 	29.333333333333
scalar Network.dyn_peer[936] 	lookupTimeSig:mean 	1.3461538461538
scalar Network.dyn_peer[936] 	lookupStabilitySig:mean 	0.95690062405685
scalar Network.dyn_peer[936] 	lookupHopsSig:mean 	12.538461538462
scalar Network.dyn_peer[937] 	lookupTimeSig:mean 	1.9
scalar Network.dyn_peer[937] 	lookupStabilitySig:mean 	0.83020057715476
scalar Network.dyn_peer[937] 	lookupHopsSig:mean 	18.25
scalar Network.dyn_peer[938] 	lookupTimeSig:mean 	1.84
scalar Network.dyn_peer[938] 	lookupStabilitySig:mean 	0.87410355396569
scalar Network.dyn_peer[938] 	lookupHopsSig:mean 	17.6
scalar Network.dyn_peer[939] 	lookupTimeSig:mean 	1.4294117647059
scalar Network.dyn_peer[939] 	lookupStabilitySig:mean 	0.94550064093817
scalar Network.dyn_peer[939] 	lookupHopsSig:mean 	13.352941176471
scalar Network.dyn_peer[940] 	lookupTimeSig:mean 	1.8666666666667
scalar Network.dyn_peer[940] 	lookupStabilitySig:mean 	0.79006364941597
scalar Network.dyn_peer[940] 	lookupHopsSig:mean 	18
scalar Network.dyn_peer[941] 	lookupTimeSig:mean 	1.6666666666667
scalar Network.dyn_peer[941] 	lookupStabilitySig:mean 	0.8353763938778
scalar Network.dyn_peer[941] 	lookupHopsSig:mean 	15.777777777778
scalar Network.dyn_peer[942] 	lookupTimeSig:mean 	1.9666666666667
scalar Network.dyn_peer[942] 	lookupStabilitySig:mean 	0.96297334538152
scalar Network.dyn_peer[942] 	lookupHopsSig:mean 	18.75
scalar Network.dyn_peer[943] 	lookupTimeSig:mean 	1.6
scalar Network.dyn_peer[943] 	lookupStabilitySig:mean 	0.8189161264648
scalar Network.dyn_peer[943] 	lookupHopsSig:mean 	15.333333333333
scalar Network.dyn_peer[944] 	lookupTimeSig:mean 	1.5428571428571
scalar Network.dyn_peer[944] 	lookupStabilitySig:mean 	0.89466042816639
scalar Network.dyn_peer[944] 	lookupHopsSig:mean 	14.5
scalar Network.dyn_peer[945] 	lookupTimeSig:mean 	1.4857142857143
scalar Network.dyn_peer[945] 	lookupStabilitySig:mean 	0.91921712777444
scalar Network.dyn_peer[945] 	lookupHopsSig:mean 	14
scalar Network.dyn_peer[946] 	lookupTimeSig:mean 	2.0333333333333
scalar Network.dyn_peer[946] 	lookupStabilitySig:mean 	0.90076666076978
scalar Network.dyn_peer[946] 	lookupHopsSig:mean 	19.5
scalar Network.dyn_peer[947] 	lookupTimeSig:mean 	2.85
scalar Network.dyn_peer[947] 	lookupStabilitySig:mean 	0.87888774229214
scalar Network.dyn_peer[947] 	lookupHopsSig:mean 	27.75
scalar Network.dyn_peer[948] 	lookupTimeSig:mean 	1.9333333333333
scalar Network.dyn_peer[948] 	lookupStabilitySig:mean 	0.92989407386631
scalar Network.dyn_peer[948] 	lookupHopsSig:mean 	18.5
scalar Network.dyn_peer[949] 	lookupTimeSig:mean 	1.16
scalar Network.dyn_peer[949] 	lookupStabilitySig:mean 	0.82824813164771
scalar Network.dyn_peer[949] 	lookupHopsSig:mean 	10.8
scalar Network.dyn_peer[950] 	lookupTimeSig:mean 	1.5
scalar Network.dyn_peer[950] 	lookupStabilitySig:mean 	0.75792188383639
scalar Network.dyn_peer[950] 	lookupHopsSig:mean 	14.5
scalar Network.dyn_peer[951] 	lookupTimeSig:mean 	1.825
scalar Network.dyn_peer[951] 	lookupStabilitySig:mean 	0.7043688558042
scalar Network.dyn_peer[951] 	lookupHopsSig:mean 	17.5
scalar Network.dyn_peer[952] 	lookupTimeSig:mean 	1.3272727272727
scalar Network.dyn_peer[952] 	lookupStabilitySig:mean 	0.93021011056209
scalar Network.dyn_peer[952] 	lookupHopsSig:mean 	12.363636363636
scalar Network.dyn_peer[953] 	lookupTimeSig:mean 	4.8666666666667
scalar Network.dyn_peer[953] 	lookupStabilitySig:mean 	0.8677314085265
scalar Network.dyn_peer[953] 	lookupHopsSig:mean 	48
scalar Network.dyn_peer[954] 	lookupTimeSig:mean 	2.26
scalar Network.dyn_peer[954] 	lookupStabilitySig:mean 	0.82350195944309
scalar Network.dyn_peer[954] 	lookupHopsSig:mean 	21.8
scalar Network.dyn_peer[955] 	lookupTimeSig:mean 	1.6
scalar Network.dyn_peer[955] 	lookupStabilitySig:mean 	0.93347250809893
scalar Network.dyn_peer[955] 	lookupHopsSig:mean 	15.111111111111
scalar Network.dyn_peer[956] 	lookupTimeSig:mean 	1.1571428571429
scalar Network.dyn_peer[956] 	lookupStabilitySig:mean 	0.81859469892723
scalar Network.dyn_peer[956] 	lookupHopsSig:mean 	10.714285714286
scalar Network.dyn_peer[957] 	lookupTimeSig:mean 	1.6833333333333
scalar Network.dyn_peer[957] 	lookupStabilitySig:mean 	0.80133979798605
scalar Network.dyn_peer[957] 	lookupHopsSig:mean 	16
scalar Network.dyn_peer[958] 	lookupTimeSig:mean 	1.3375
scalar Network.dyn_peer[958] 	lookupStabilitySig:mean 	0.83122661686502
scalar Network.dyn_peer[958] 	lookupHopsSig:mean 	12.5
scalar Network.dyn_peer[959] 	lookupTimeSig:mean 	1.3
scalar Network.dyn_peer[959] 	lookupStabilitySig:mean 	0.719531878829
scalar Network.dyn_peer[959] 	lookupHopsSig:mean 	12.5
scalar Network.dyn_peer[960] 	lookupTimeSig:mean 	1.7888888888889
scalar Network.dyn_peer[960] 	lookupStabilitySig:mean 	0.94366106018424
scalar Network.dyn_peer[960] 	lookupHopsSig:mean 	17
scalar Network.dyn_peer[961] 	lookupTimeSig:mean 	1.7090909090909
scalar Network.dyn_peer[961] 	lookupStabilitySig:mean 	0.95038680541752
scalar Network.dyn_peer[961] 	lookupHopsSig:mean 	16.181818181818
scalar Network.dyn_peer[962] 	lookupTimeSig:mean 	2.12
scalar Network.dyn_peer[962] 	lookupStabilitySig:mean 	0.9101866543293
scalar Network.dyn_peer[962] 	lookupHopsSig:mean 	20.4
scalar Network.dyn_peer[963] 	lookupTimeSig:mean 	0.94
scalar Network.dyn_peer[963] 	lookupStabilitySig:mean 	0.87796362638474
scalar Network.dyn_peer[963] 	lookupHopsSig:mean 	8.6
scalar Network.dyn_peer[964] 	lookupTimeSig:mean 	4.4
scalar Network.dyn_peer[964] 	lookupStabilitySig:mean 	0.71605998277664
scalar Network.dyn_peer[964] 	lookupHopsSig:mean 	43.5
scalar Network.dyn_peer[965] 	lookupTimeSig:mean 	2.1
scalar Network.dyn_peer[965] 	lookupStabilitySig:mean 	0.86991141922772
scalar Network.dyn_peer[965] 	lookupHopsSig:mean 	20.25
scalar Network.dyn_peer[966] 	lookupTimeSig:mean 	1.56
scalar Network.dyn_peer[966] 	lookupStabilitySig:mean 	0.91890995968133
scalar Network.dyn_peer[966] 	lookupHopsSig:mean 	14.7
scalar Network.dyn_peer[967] 	lookupTimeSig:mean 	2.3333333333333
scalar Network.dyn_peer[967] 	lookupStabilitySig:mean 	0.83422209943334
scalar Network.dyn_peer[967] 	lookupHopsSig:mean 	22.666666666667
scalar Network.dyn_peer[968] 	lookupTimeSig:mean 	2.1428571428571
scalar Network.dyn_peer[968] 	lookupStabilitySig:mean 	0.89603214418249
scalar Network.dyn_peer[968] 	lookupHopsSig:mean 	20.571428571429
scalar Network.dyn_peer[969] 	lookupTimeSig:mean 	2.05
scalar Network.dyn_peer[969] 	lookupStabilitySig:mean 	0.82798934075981
scalar Network.dyn_peer[969] 	lookupHopsSig:mean 	19.75
scalar Network.dyn_peer[970] 	lookupTimeSig:mean 	2.525
scalar Network.dyn_peer[970] 	lookupStabilitySig:mean 	0.94355851481669
scalar Network.dyn_peer[970] 	lookupHopsSig:mean 	24.375
scalar Network.dyn_peer[971] 	lookupTimeSig:mean 	2.1625
scalar Network.dyn_peer[971] 	lookupStabilitySig:mean 	0.94273326179245
scalar Network.dyn_peer[971] 	lookupHopsSig:mean 	20.75
scalar Network.dyn_peer[972] 	lookupTimeSig:mean 	2.0111111111111
scalar Network.dyn_peer[972] 	lookupStabilitySig:mean 	0.94225863222447
scalar Network.dyn_peer[972] 	lookupHopsSig:mean 	19.222222222222
scalar Network.dyn_peer[973] 	lookupTimeSig:mean 	2.85
scalar Network.dyn_peer[973] 	lookupStabilitySig:mean 	0.74682054389268
scalar Network.dyn_peer[973] 	lookupHopsSig:mean 	27.75
scalar Network.dyn_peer[974] 	lookupTimeSig:mean 	3.5333333333333
scalar Network.dyn_peer[974] 	lookupStabilitySig:mean 	0.82282975812753
scalar Network.dyn_peer[974] 	lookupHopsSig:mean 	34.666666666667
scalar Network.dyn_peer[975] 	lookupTimeSig:mean 	1
scalar Network.dyn_peer[975] 	lookupStabilitySig:mean 	0.61180853346984
scalar Network.dyn_peer[975] 	lookupHopsSig:mean 	9.3333333333333
scalar Network.dyn_peer[976] 	lookupTimeSig:mean 	1.4666666666667
scalar Network.dyn_peer[976] 	lookupStabilitySig:mean 	0.93339538642128
scalar Network.dyn_peer[976] 	lookupHopsSig:mean 	13.75
scalar Network.dyn_peer[977] 	lookupTimeSig:mean 	1.4285714285714
scalar Network.dyn_peer[977] 	lookupStabilitySig:mean 	0.84959503822029
scalar Network.dyn_peer[977] 	lookupHopsSig:mean 	13.428571428571
scalar Network.dyn_peer[978] 	lookupTimeSig:mean 	2.96
scalar Network.dyn_peer[978] 	lookupStabilitySig:mean 	0.92093341574073
scalar Network.dyn_peer[978] 	lookupHopsSig:mean 	28.8
scalar Network.dyn_peer[979] 	lookupTimeSig:mean 	1.82
scalar Network.dyn_peer[979] 	lookupStabilitySig:mean 	0.83093043044209
scalar Network.dyn_peer[979] 	lookupHopsSig:mean 	17.4
scalar Network.dyn_peer[980] 	lookupTimeSig:mean 	2
scalar Network.dyn_peer[980] 	lookupStabilitySig:mean 	0.91936374579867
scalar Network.dyn_peer[980] 	lookupHopsSig:mean 	19.166666666667
scalar Network.dyn_peer[981] 	lookupTimeSig:mean 	1.8
scalar Network.dyn_peer[981] 	lookupStabilitySig:mean 	0.71570057701319
scalar Network.dyn_peer[981] 	lookupHopsSig:mean 	17.25
scalar Network.dyn_peer[982] 	lookupTimeSig:mean 	1.4090909090909
scalar Network.dyn_peer[982] 	lookupStabilitySig:mean 	0.87245722921481
scalar Network.dyn_peer[982] 	lookupHopsSig:mean 	13.181818181818
scalar Network.dyn_peer[983] 	lookupTimeSig:mean 	2.3375
scalar Network.dyn_peer[983] 	lookupStabilitySig:mean 	0.93155323836254
scalar Network.dyn_peer[983] 	lookupHopsSig:mean 	22.5
scalar Network.dyn_peer[984] 	lookupTimeSig:mean 	1.6818181818182
scalar Network.dyn_peer[984] 	lookupStabilitySig:mean 	0.95421791618521
scalar Network.dyn_peer[984] 	lookupHopsSig:mean 	15.909090909091
scalar Network.dyn_peer[985] 	lookupTimeSig:mean 	1.7333333333333
scalar Network.dyn_peer[985] 	lookupStabilitySig:mean 	0.78720300458372
scalar Network.dyn_peer[985] 	lookupHopsSig:mean 	16.5
scalar Network.dyn_peer[986] 	lookupTimeSig:mean 	2.325
scalar Network.dyn_peer[986] 	lookupStabilitySig:mean 	0.83426016150042
scalar Network.dyn_peer[986] 	lookupHopsSig:mean 	22.5
scalar Network.dyn_peer[987] 	lookupTimeSig:mean 	1.77
scalar Network.dyn_peer[987] 	lookupStabilitySig:mean 	0.9351284683682
scalar Network.dyn_peer[987] 	lookupHopsSig:mean 	16.8
scalar Network.dyn_peer[988] 	lookupTimeSig:mean 	2.7428571428571
scalar Network.dyn_peer[988] 	lookupStabilitySig:mean 	0.93661169987172
scalar Network.dyn_peer[988] 	lookupHopsSig:mean 	26.571428571429
scalar Network.dyn_peer[989] 	lookupTimeSig:mean 	2.425
scalar Network.dyn_peer[989] 	lookupStabilitySig:mean 	0.74583031982183
scalar Network.dyn_peer[989] 	lookupHopsSig:mean 	23.5
scalar Network.dyn_peer[990] 	lookupTimeSig:mean 	1.58
scalar Network.dyn_peer[990] 	lookupStabilitySig:mean 	0.76695044226944
scalar Network.dyn_peer[990] 	lookupHopsSig:mean 	15
scalar Network.dyn_peer[991] 	lookupTimeSig:mean 	2.36
scalar Network.dyn_peer[991] 	lookupStabilitySig:mean 	0.77755102775991
scalar Network.dyn_peer[991] 	lookupHopsSig:mean 	22.8
scalar Network.dyn_peer[992] 	lookupTimeSig:mean 	1.275
scalar Network.dyn_peer[992] 	lookupStabilitySig:mean 	0.6991357896477
scalar Network.dyn_peer[992] 	lookupHopsSig:mean 	12
scalar Network.dyn_peer[993] 	lookupTimeSig:mean 	2.02
scalar Network.dyn_peer[993] 	lookupStabilitySig:mean 	0.74107565656304
scalar Network.dyn_peer[993] 	lookupHopsSig:mean 	19.4
scalar Network.dyn_peer[994] 	lookupTimeSig:mean 	1.7
scalar Network.dyn_peer[994] 	lookupStabilitySig:mean 	0.77303611673415
scalar Network.dyn_peer[994] 	lookupHopsSig:mean 	16.2
scalar Network.dyn_peer[995] 	lookupTimeSig:mean 	1.8
scalar Network.dyn_peer[995] 	lookupStabilitySig:mean 	0.8665809831582
scalar Network.dyn_peer[995] 	lookupHopsSig:mean 	17.25
scalar Network.dyn_peer[996] 	lookupTimeSig:mean 	2.8666666666667
scalar Network.dyn_peer[996] 	lookupStabilitySig:mean 	0.83520700658361
scalar Network.dyn_peer[996] 	lookupHopsSig:mean 	28
scalar Network.dyn_peer[997] 	lookupTimeSig:mean 	2.6
scalar Network.dyn_peer[997] 	lookupStabilitySig:mean 	0.94440903592234
scalar Network.dyn_peer[997] 	lookupHopsSig:mean 	25.166666666667
scalar Network.dyn_peer[998] 	lookupTimeSig:mean 	2.8
scalar Network.dyn_peer[998] 	lookupStabilitySig:mean 	0.67860936373472
scalar Network.dyn_peer[998] 	lookupHopsSig:mean 	27.5
scalar Network.dyn_peer[999] 	lookupTimeSig:mean 	1.5444444444444
scalar Network.dyn_peer[999] 	lookupStabilitySig:mean 	0.91770257924994
scalar Network.dyn_peer[999] 	lookupHopsSig:mean 	14.555555555556
scalar Network.churner 	inGoingSizeSig:mean 	498.93106893107
