version 2
run Stability2-324-20130526-00:55:30-26640
attr configname Stability2
attr datetime 20130526-00:55:30
attr experiment Stability2
attr inifile omnetpp.ini
attr iterationvars $0=1000
attr iterationvars2 "$0=1000, $repetition=24"
attr measurement $0=1000
attr network Network
attr processid 26640
attr repetition 24
attr replication #24
attr resultdir results
attr runnumber 324
attr seedset 324

scalar Network.dyn_peer[0] 	lookupTimeSig:mean 	1.7
scalar Network.dyn_peer[0] 	lookupStabilitySig:mean 	-0.61666662991047
scalar Network.dyn_peer[0] 	lookupHopsSig:mean 	16.5
scalar Network.dyn_peer[1] 	lookupTimeSig:mean 	2.275
scalar Network.dyn_peer[1] 	lookupStabilitySig:mean 	0.63858179375529
scalar Network.dyn_peer[1] 	lookupHopsSig:mean 	22
scalar Network.dyn_peer[2] 	lookupTimeSig:mean 	1.6
scalar Network.dyn_peer[2] 	lookupStabilitySig:mean 	0.74154499840612
scalar Network.dyn_peer[2] 	lookupHopsSig:mean 	15.166666666667
scalar Network.dyn_peer[3] 	lookupTimeSig:mean 	2.0428571428571
scalar Network.dyn_peer[3] 	lookupStabilitySig:mean 	0.70457995084247
scalar Network.dyn_peer[3] 	lookupHopsSig:mean 	19.571428571429
scalar Network.dyn_peer[4] 	lookupTimeSig:mean 	1.7
scalar Network.dyn_peer[4] 	lookupStabilitySig:mean 	0.70380033800999
scalar Network.dyn_peer[4] 	lookupHopsSig:mean 	16.333333333333
scalar Network.dyn_peer[5] 	lookupTimeSig:mean 	2.1666666666667
scalar Network.dyn_peer[5] 	lookupStabilitySig:mean 	0.079710145791372
scalar Network.dyn_peer[5] 	lookupHopsSig:mean 	21
scalar Network.dyn_peer[6] 	lookupTimeSig:mean 	1.42
scalar Network.dyn_peer[6] 	lookupStabilitySig:mean 	0.6544854127802
scalar Network.dyn_peer[6] 	lookupHopsSig:mean 	13.3
scalar Network.dyn_peer[7] 	lookupTimeSig:mean 	2.0714285714286
scalar Network.dyn_peer[7] 	lookupStabilitySig:mean 	0.78929469135723
scalar Network.dyn_peer[7] 	lookupHopsSig:mean 	19.857142857143
scalar Network.dyn_peer[8] 	lookupTimeSig:mean 	2.1285714285714
scalar Network.dyn_peer[8] 	lookupStabilitySig:mean 	0.51573269601379
scalar Network.dyn_peer[8] 	lookupHopsSig:mean 	20.428571428571
scalar Network.dyn_peer[9] 	lookupTimeSig:mean 	1.64
scalar Network.dyn_peer[9] 	lookupStabilitySig:mean 	0.43813068494201
scalar Network.dyn_peer[9] 	lookupHopsSig:mean 	15.6
scalar Network.dyn_peer[10] 	lookupTimeSig:mean 	2.5
scalar Network.dyn_peer[10] 	lookupStabilitySig:mean 	0.68955148011446
scalar Network.dyn_peer[10] 	lookupHopsSig:mean 	24.25
scalar Network.dyn_peer[11] 	lookupTimeSig:mean 	2.25
scalar Network.dyn_peer[11] 	lookupStabilitySig:mean 	0.23800365626812
scalar Network.dyn_peer[11] 	lookupHopsSig:mean 	21.75
scalar Network.dyn_peer[12] 	lookupTimeSig:mean 	1.9714285714286
scalar Network.dyn_peer[12] 	lookupStabilitySig:mean 	0.55463834106922
scalar Network.dyn_peer[12] 	lookupHopsSig:mean 	18.857142857143
scalar Network.dyn_peer[13] 	lookupTimeSig:mean 	2.925
scalar Network.dyn_peer[13] 	lookupStabilitySig:mean 	0.70059454999864
scalar Network.dyn_peer[13] 	lookupHopsSig:mean 	28.5
scalar Network.dyn_peer[14] 	lookupTimeSig:mean 	1.8333333333333
scalar Network.dyn_peer[14] 	lookupStabilitySig:mean 	0.2723684211572
scalar Network.dyn_peer[14] 	lookupHopsSig:mean 	17.666666666667
scalar Network.dyn_peer[15] 	lookupTimeSig:mean 	3.5
scalar Network.dyn_peer[15] 	lookupStabilitySig:mean 	0.66835129633546
scalar Network.dyn_peer[15] 	lookupHopsSig:mean 	34.5
scalar Network.dyn_peer[16] 	lookupTimeSig:mean 	2.0153846153846
scalar Network.dyn_peer[16] 	lookupStabilitySig:mean 	0.8295718235895
scalar Network.dyn_peer[16] 	lookupHopsSig:mean 	19.230769230769
scalar Network.dyn_peer[17] 	lookupTimeSig:mean 	1.3545454545455
scalar Network.dyn_peer[17] 	lookupStabilitySig:mean 	0.71533049490641
scalar Network.dyn_peer[17] 	lookupHopsSig:mean 	12.636363636364
scalar Network.dyn_peer[18] 	lookupTimeSig:mean 	1.2
scalar Network.dyn_peer[18] 	lookupStabilitySig:mean 	0.4477483285591
scalar Network.dyn_peer[18] 	lookupHopsSig:mean 	11.25
scalar Network.dyn_peer[19] 	lookupTimeSig:mean 	2.225
scalar Network.dyn_peer[19] 	lookupStabilitySig:mean 	0.31266541592777
scalar Network.dyn_peer[19] 	lookupHopsSig:mean 	21.5
scalar Network.dyn_peer[20] 	lookupTimeSig:mean 	1.8
scalar Network.dyn_peer[20] 	lookupStabilitySig:mean 	0.58274334296584
scalar Network.dyn_peer[20] 	lookupHopsSig:mean 	17.166666666667
scalar Network.dyn_peer[21] 	lookupTimeSig:mean 	1.1333333333333
scalar Network.dyn_peer[21] 	lookupStabilitySig:mean 	0.59583386778831
scalar Network.dyn_peer[21] 	lookupHopsSig:mean 	10.666666666667
scalar Network.dyn_peer[22] 	lookupTimeSig:mean 	2.7
scalar Network.dyn_peer[22] 	lookupStabilitySig:mean 	0.69795394204557
scalar Network.dyn_peer[22] 	lookupHopsSig:mean 	26.2
scalar Network.dyn_peer[23] 	lookupTimeSig:mean 	2.0142857142857
scalar Network.dyn_peer[23] 	lookupStabilitySig:mean 	0.52792586971607
scalar Network.dyn_peer[23] 	lookupHopsSig:mean 	19.285714285714
scalar Network.dyn_peer[24] 	lookupTimeSig:mean 	2.3125
scalar Network.dyn_peer[24] 	lookupStabilitySig:mean 	0.64675322733819
scalar Network.dyn_peer[24] 	lookupHopsSig:mean 	22.25
scalar Network.dyn_peer[25] 	lookupTimeSig:mean 	3.225
scalar Network.dyn_peer[25] 	lookupStabilitySig:mean 	0.8617425346747
scalar Network.dyn_peer[25] 	lookupHopsSig:mean 	31.5
scalar Network.dyn_peer[26] 	lookupTimeSig:mean 	2.1666666666667
scalar Network.dyn_peer[26] 	lookupStabilitySig:mean 	0.87920102746122
scalar Network.dyn_peer[26] 	lookupHopsSig:mean 	20.777777777778
scalar Network.dyn_peer[27] 	lookupTimeSig:mean 	1.12
scalar Network.dyn_peer[27] 	lookupStabilitySig:mean 	0.3416983038187
scalar Network.dyn_peer[27] 	lookupHopsSig:mean 	10.4
scalar Network.dyn_peer[28] 	lookupTimeSig:mean 	2.875
scalar Network.dyn_peer[28] 	lookupStabilitySig:mean 	0.62580974493176
scalar Network.dyn_peer[28] 	lookupHopsSig:mean 	28
scalar Network.dyn_peer[29] 	lookupTimeSig:mean 	2.425
scalar Network.dyn_peer[29] 	lookupStabilitySig:mean 	0.47410351037979
scalar Network.dyn_peer[29] 	lookupHopsSig:mean 	23.5
scalar Network.dyn_peer[30] 	lookupTimeSig:mean 	1.6333333333333
scalar Network.dyn_peer[30] 	lookupStabilitySig:mean 	0.61154860537499
scalar Network.dyn_peer[30] 	lookupHopsSig:mean 	15.444444444444
scalar Network.dyn_peer[31] 	lookupTimeSig:mean 	0.325
scalar Network.dyn_peer[31] 	lookupStabilitySig:mean 	0.49999999254942
scalar Network.dyn_peer[31] 	lookupHopsSig:mean 	2.5
scalar Network.dyn_peer[32] 	lookupTimeSig:mean 	2.1
scalar Network.dyn_peer[32] 	lookupStabilitySig:mean 	0.52322577685118
scalar Network.dyn_peer[32] 	lookupHopsSig:mean 	20.25
scalar Network.dyn_peer[33] 	lookupTimeSig:mean 	1.8285714285714
scalar Network.dyn_peer[33] 	lookupStabilitySig:mean 	0.68510802515915
scalar Network.dyn_peer[33] 	lookupHopsSig:mean 	17.428571428571
scalar Network.dyn_peer[34] 	lookupTimeSig:mean 	2.3285714285714
scalar Network.dyn_peer[34] 	lookupStabilitySig:mean 	0.63155516769205
scalar Network.dyn_peer[34] 	lookupHopsSig:mean 	22.428571428571
scalar Network.dyn_peer[35] 	lookupTimeSig:mean 	2.3666666666667
scalar Network.dyn_peer[35] 	lookupStabilitySig:mean 	0.55585584541162
scalar Network.dyn_peer[35] 	lookupHopsSig:mean 	23
scalar Network.dyn_peer[36] 	lookupTimeSig:mean 	1.3
scalar Network.dyn_peer[36] 	lookupStabilitySig:mean 	0.39953304827213
scalar Network.dyn_peer[36] 	lookupHopsSig:mean 	12.25
scalar Network.dyn_peer[37] 	lookupTimeSig:mean 	3.225
scalar Network.dyn_peer[37] 	lookupStabilitySig:mean 	0.36531889811158
scalar Network.dyn_peer[37] 	lookupHopsSig:mean 	31.5
scalar Network.dyn_peer[38] 	lookupTimeSig:mean 	1.6
scalar Network.dyn_peer[38] 	lookupStabilitySig:mean 	0.63732570037246
scalar Network.dyn_peer[38] 	lookupHopsSig:mean 	15.25
scalar Network.dyn_peer[39] 	lookupTimeSig:mean 	1.7875
scalar Network.dyn_peer[39] 	lookupStabilitySig:mean 	0.84232157038059
scalar Network.dyn_peer[39] 	lookupHopsSig:mean 	17
scalar Network.dyn_peer[40] 	lookupTimeSig:mean 	1.975
scalar Network.dyn_peer[40] 	lookupStabilitySig:mean 	0.76990234013647
scalar Network.dyn_peer[40] 	lookupHopsSig:mean 	19
scalar Network.dyn_peer[41] 	lookupTimeSig:mean 	2.1142857142857
scalar Network.dyn_peer[41] 	lookupStabilitySig:mean 	0.56837545149028
scalar Network.dyn_peer[41] 	lookupHopsSig:mean 	20.285714285714
scalar Network.dyn_peer[42] 	lookupTimeSig:mean 	1.5888888888889
scalar Network.dyn_peer[42] 	lookupStabilitySig:mean 	0.74781881852282
scalar Network.dyn_peer[42] 	lookupHopsSig:mean 	15
scalar Network.dyn_peer[43] 	lookupTimeSig:mean 	1.9272727272727
scalar Network.dyn_peer[43] 	lookupStabilitySig:mean 	0.96010514721274
scalar Network.dyn_peer[43] 	lookupHopsSig:mean 	18.363636363636
scalar Network.dyn_peer[44] 	lookupTimeSig:mean 	2.2222222222222
scalar Network.dyn_peer[44] 	lookupStabilitySig:mean 	0.94694456489136
scalar Network.dyn_peer[44] 	lookupHopsSig:mean 	21.333333333333
scalar Network.dyn_peer[45] 	lookupTimeSig:mean 	2.04
scalar Network.dyn_peer[45] 	lookupStabilitySig:mean 	0.93449667308014
scalar Network.dyn_peer[45] 	lookupHopsSig:mean 	19.5
scalar Network.dyn_peer[46] 	lookupTimeSig:mean 	1.775
scalar Network.dyn_peer[46] 	lookupStabilitySig:mean 	0.93939688161481
scalar Network.dyn_peer[46] 	lookupHopsSig:mean 	16.875
scalar Network.dyn_peer[47] 	lookupTimeSig:mean 	1.32
scalar Network.dyn_peer[47] 	lookupStabilitySig:mean 	0.49618285037577
scalar Network.dyn_peer[47] 	lookupHopsSig:mean 	12.4
scalar Network.dyn_peer[48] 	lookupTimeSig:mean 	1.325
scalar Network.dyn_peer[48] 	lookupStabilitySig:mean 	0.50418402487412
scalar Network.dyn_peer[48] 	lookupHopsSig:mean 	12.5
scalar Network.dyn_peer[49] 	lookupTimeSig:mean 	0.9
scalar Network.dyn_peer[49] 	lookupStabilitySig:mean 	0.3110333904624
scalar Network.dyn_peer[49] 	lookupHopsSig:mean 	8.3333333333333
scalar Network.dyn_peer[50] 	lookupTimeSig:mean 	2.3
scalar Network.dyn_peer[50] 	lookupStabilitySig:mean 	0.6145523438851
scalar Network.dyn_peer[50] 	lookupHopsSig:mean 	22.333333333333
scalar Network.dyn_peer[51] 	lookupTimeSig:mean 	1.8714285714286
scalar Network.dyn_peer[51] 	lookupStabilitySig:mean 	0.78741336460891
scalar Network.dyn_peer[51] 	lookupHopsSig:mean 	17.857142857143
scalar Network.dyn_peer[52] 	lookupTimeSig:mean 	2.76
scalar Network.dyn_peer[52] 	lookupStabilitySig:mean 	0.55800945311785
scalar Network.dyn_peer[52] 	lookupHopsSig:mean 	26.8
scalar Network.dyn_peer[53] 	lookupTimeSig:mean 	1.6
scalar Network.dyn_peer[53] 	lookupStabilitySig:mean 	0.51073814835399
scalar Network.dyn_peer[53] 	lookupHopsSig:mean 	15.25
scalar Network.dyn_peer[54] 	lookupTimeSig:mean 	3.1
scalar Network.dyn_peer[54] 	lookupStabilitySig:mean 	0.89548201362292
scalar Network.dyn_peer[54] 	lookupHopsSig:mean 	30.166666666667
scalar Network.dyn_peer[55] 	lookupTimeSig:mean 	0.95
scalar Network.dyn_peer[55] 	lookupStabilitySig:mean 	0.26801992207766
scalar Network.dyn_peer[55] 	lookupHopsSig:mean 	8.75
scalar Network.dyn_peer[56] 	lookupTimeSig:mean 	2.2
scalar Network.dyn_peer[56] 	lookupStabilitySig:mean 	0.61335013310115
scalar Network.dyn_peer[56] 	lookupHopsSig:mean 	21.333333333333
scalar Network.dyn_peer[57] 	lookupTimeSig:mean 	2.4333333333333
scalar Network.dyn_peer[57] 	lookupStabilitySig:mean 	-0.066104119022687
scalar Network.dyn_peer[57] 	lookupHopsSig:mean 	23.666666666667
scalar Network.dyn_peer[58] 	lookupTimeSig:mean 	2.25
scalar Network.dyn_peer[58] 	lookupStabilitySig:mean 	0.37247397564352
scalar Network.dyn_peer[58] 	lookupHopsSig:mean 	21.75
scalar Network.dyn_peer[59] 	lookupTimeSig:mean 	0.75
scalar Network.dyn_peer[59] 	lookupStabilitySig:mean 	0.29047619178891
scalar Network.dyn_peer[59] 	lookupHopsSig:mean 	6.75
scalar Network.dyn_peer[60] 	lookupTimeSig:mean 	1.7142857142857
scalar Network.dyn_peer[60] 	lookupStabilitySig:mean 	0.55366576090455
scalar Network.dyn_peer[60] 	lookupHopsSig:mean 	16.285714285714
scalar Network.dyn_peer[61] 	lookupTimeSig:mean 	2.0888888888889
scalar Network.dyn_peer[61] 	lookupStabilitySig:mean 	0.93158424066173
scalar Network.dyn_peer[61] 	lookupHopsSig:mean 	20
scalar Network.dyn_peer[62] 	lookupTimeSig:mean 	1.9666666666667
scalar Network.dyn_peer[62] 	lookupStabilitySig:mean 	0.53808369425436
scalar Network.dyn_peer[62] 	lookupHopsSig:mean 	18.833333333333
scalar Network.dyn_peer[63] 	lookupTimeSig:mean 	2.075
scalar Network.dyn_peer[63] 	lookupStabilitySig:mean 	0.59371290542185
scalar Network.dyn_peer[63] 	lookupHopsSig:mean 	20
scalar Network.dyn_peer[64] 	lookupTimeSig:mean 	1.8875
scalar Network.dyn_peer[64] 	lookupStabilitySig:mean 	0.79640985489823
scalar Network.dyn_peer[64] 	lookupHopsSig:mean 	18
scalar Network.dyn_peer[65] 	lookupTimeSig:mean 	1.9
scalar Network.dyn_peer[65] 	lookupStabilitySig:mean 	0.7138007900212
scalar Network.dyn_peer[65] 	lookupHopsSig:mean 	18.125
scalar Network.dyn_peer[66] 	lookupTimeSig:mean 	2.15
scalar Network.dyn_peer[66] 	lookupStabilitySig:mean 	0.84983657331516
scalar Network.dyn_peer[66] 	lookupHopsSig:mean 	20.666666666667
scalar Network.dyn_peer[67] 	lookupTimeSig:mean 	1.7714285714286
scalar Network.dyn_peer[67] 	lookupStabilitySig:mean 	0.55713114089199
scalar Network.dyn_peer[67] 	lookupHopsSig:mean 	16.857142857143
scalar Network.dyn_peer[68] 	lookupTimeSig:mean 	1.5
scalar Network.dyn_peer[68] 	lookupStabilitySig:mean 	0.40673533640802
scalar Network.dyn_peer[68] 	lookupHopsSig:mean 	14.25
scalar Network.dyn_peer[69] 	lookupTimeSig:mean 	1.3333333333333
scalar Network.dyn_peer[69] 	lookupStabilitySig:mean 	0.61440553888679
scalar Network.dyn_peer[69] 	lookupHopsSig:mean 	12.5
scalar Network.dyn_peer[70] 	lookupTimeSig:mean 	1.5333333333333
scalar Network.dyn_peer[70] 	lookupStabilitySig:mean 	0.5085487794131
scalar Network.dyn_peer[70] 	lookupHopsSig:mean 	14.5
scalar Network.dyn_peer[71] 	lookupTimeSig:mean 	1.84
scalar Network.dyn_peer[71] 	lookupStabilitySig:mean 	0.59704673737288
scalar Network.dyn_peer[71] 	lookupHopsSig:mean 	17.6
scalar Network.dyn_peer[72] 	lookupTimeSig:mean 	1
scalar Network.dyn_peer[72] 	lookupStabilitySig:mean 	0.19629629204671
scalar Network.dyn_peer[72] 	lookupHopsSig:mean 	9.3333333333333
scalar Network.dyn_peer[73] 	lookupTimeSig:mean 	1.8714285714286
scalar Network.dyn_peer[73] 	lookupStabilitySig:mean 	0.9370669501368
scalar Network.dyn_peer[73] 	lookupHopsSig:mean 	17.857142857143
scalar Network.dyn_peer[74] 	lookupTimeSig:mean 	1.8875
scalar Network.dyn_peer[74] 	lookupStabilitySig:mean 	0.60653712018393
scalar Network.dyn_peer[74] 	lookupHopsSig:mean 	18
scalar Network.dyn_peer[75] 	lookupTimeSig:mean 	3
scalar Network.dyn_peer[75] 	lookupStabilitySig:mean 	0.71410255879164
scalar Network.dyn_peer[75] 	lookupHopsSig:mean 	29.5
scalar Network.dyn_peer[76] 	lookupTimeSig:mean 	5.3
scalar Network.dyn_peer[76] 	lookupStabilitySig:mean 	0.58401913940907
scalar Network.dyn_peer[76] 	lookupHopsSig:mean 	52.5
scalar Network.dyn_peer[77] 	lookupTimeSig:mean 	2.675
scalar Network.dyn_peer[77] 	lookupStabilitySig:mean 	0.49608332198113
scalar Network.dyn_peer[77] 	lookupHopsSig:mean 	26
scalar Network.dyn_peer[78] 	lookupTimeSig:mean 	2.35
scalar Network.dyn_peer[78] 	lookupStabilitySig:mean 	0.79379360346744
scalar Network.dyn_peer[78] 	lookupHopsSig:mean 	22.666666666667
scalar Network.dyn_peer[79] 	lookupTimeSig:mean 	2.35
scalar Network.dyn_peer[79] 	lookupStabilitySig:mean 	0.048629552125931
scalar Network.dyn_peer[79] 	lookupHopsSig:mean 	23
scalar Network.dyn_peer[80] 	lookupTimeSig:mean 	2.125
scalar Network.dyn_peer[80] 	lookupStabilitySig:mean 	0.74501898512244
scalar Network.dyn_peer[80] 	lookupHopsSig:mean 	20.5
scalar Network.dyn_peer[81] 	lookupTimeSig:mean 	1.96
scalar Network.dyn_peer[81] 	lookupStabilitySig:mean 	0.64479698166251
scalar Network.dyn_peer[81] 	lookupHopsSig:mean 	18.8
scalar Network.dyn_peer[82] 	lookupTimeSig:mean 	1.8818181818182
scalar Network.dyn_peer[82] 	lookupStabilitySig:mean 	0.96201295278628
scalar Network.dyn_peer[82] 	lookupHopsSig:mean 	17.909090909091
scalar Network.dyn_peer[83] 	lookupTimeSig:mean 	1.4
scalar Network.dyn_peer[83] 	lookupStabilitySig:mean 	0.13852815330029
scalar Network.dyn_peer[83] 	lookupHopsSig:mean 	13.5
scalar Network.dyn_peer[84] 	lookupTimeSig:mean 	1.8333333333333
scalar Network.dyn_peer[84] 	lookupStabilitySig:mean 	0.61666665971279
scalar Network.dyn_peer[84] 	lookupHopsSig:mean 	17.666666666667
scalar Network.dyn_peer[85] 	lookupTimeSig:mean 	2.1428571428571
scalar Network.dyn_peer[85] 	lookupStabilitySig:mean 	0.93748096762491
scalar Network.dyn_peer[85] 	lookupHopsSig:mean 	20.571428571429
scalar Network.dyn_peer[86] 	lookupTimeSig:mean 	2.325
scalar Network.dyn_peer[86] 	lookupStabilitySig:mean 	0.63806296139956
scalar Network.dyn_peer[86] 	lookupHopsSig:mean 	22.5
scalar Network.dyn_peer[87] 	lookupTimeSig:mean 	1.7
scalar Network.dyn_peer[87] 	lookupStabilitySig:mean 	0.3897056940943
scalar Network.dyn_peer[87] 	lookupHopsSig:mean 	16.2
scalar Network.dyn_peer[88] 	lookupTimeSig:mean 	2.75
scalar Network.dyn_peer[88] 	lookupStabilitySig:mean 	0.6331041213125
scalar Network.dyn_peer[88] 	lookupHopsSig:mean 	26.75
scalar Network.dyn_peer[89] 	lookupTimeSig:mean 	2.4375
scalar Network.dyn_peer[89] 	lookupStabilitySig:mean 	0.86869937274605
scalar Network.dyn_peer[89] 	lookupHopsSig:mean 	23.5
scalar Network.dyn_peer[90] 	lookupTimeSig:mean 	2.95
scalar Network.dyn_peer[90] 	lookupStabilitySig:mean 	0.81045751273632
scalar Network.dyn_peer[90] 	lookupHopsSig:mean 	29
scalar Network.dyn_peer[91] 	lookupTimeSig:mean 	1.925
scalar Network.dyn_peer[91] 	lookupStabilitySig:mean 	0.16756491921842
scalar Network.dyn_peer[91] 	lookupHopsSig:mean 	18.5
scalar Network.dyn_peer[92] 	lookupTimeSig:mean 	1.1
scalar Network.dyn_peer[92] 	lookupStabilitySig:mean 	0.54141409570972
scalar Network.dyn_peer[92] 	lookupHopsSig:mean 	10.166666666667
scalar Network.dyn_peer[93] 	lookupTimeSig:mean 	2.28
scalar Network.dyn_peer[93] 	lookupStabilitySig:mean 	0.73230787776411
scalar Network.dyn_peer[93] 	lookupHopsSig:mean 	22
scalar Network.dyn_peer[94] 	lookupTimeSig:mean 	2.9571428571429
scalar Network.dyn_peer[94] 	lookupStabilitySig:mean 	0.95461243244686
scalar Network.dyn_peer[94] 	lookupHopsSig:mean 	28.714285714286
scalar Network.dyn_peer[95] 	lookupTimeSig:mean 	1.725
scalar Network.dyn_peer[95] 	lookupStabilitySig:mean 	0.50490860082209
scalar Network.dyn_peer[95] 	lookupHopsSig:mean 	16.5
scalar Network.dyn_peer[96] 	lookupTimeSig:mean 	1.3090909090909
scalar Network.dyn_peer[96] 	lookupStabilitySig:mean 	0.89415875923905
scalar Network.dyn_peer[96] 	lookupHopsSig:mean 	12.181818181818
scalar Network.dyn_peer[97] 	lookupTimeSig:mean 	3.225
scalar Network.dyn_peer[97] 	lookupStabilitySig:mean 	0.79684167494997
scalar Network.dyn_peer[97] 	lookupHopsSig:mean 	31.5
scalar Network.dyn_peer[98] 	lookupTimeSig:mean 	1.4857142857143
scalar Network.dyn_peer[98] 	lookupStabilitySig:mean 	0.55661242614899
scalar Network.dyn_peer[98] 	lookupHopsSig:mean 	14
scalar Network.dyn_peer[99] 	lookupTimeSig:mean 	3.35
scalar Network.dyn_peer[99] 	lookupStabilitySig:mean 	0.24518948234618
scalar Network.dyn_peer[99] 	lookupHopsSig:mean 	32.75
scalar Network.dyn_peer[100] 	lookupTimeSig:mean 	1.52
scalar Network.dyn_peer[100] 	lookupStabilitySig:mean 	0.62255362048745
scalar Network.dyn_peer[100] 	lookupHopsSig:mean 	14.4
scalar Network.dyn_peer[101] 	lookupTimeSig:mean 	1.7416666666667
scalar Network.dyn_peer[101] 	lookupStabilitySig:mean 	0.74003786438455
scalar Network.dyn_peer[101] 	lookupHopsSig:mean 	16.5
scalar Network.dyn_peer[102] 	lookupTimeSig:mean 	3.025
scalar Network.dyn_peer[102] 	lookupStabilitySig:mean 	0.6432066000998
scalar Network.dyn_peer[102] 	lookupHopsSig:mean 	29.5
scalar Network.dyn_peer[103] 	lookupTimeSig:mean 	0.95
scalar Network.dyn_peer[103] 	lookupStabilitySig:mean 	0.24936927109957
scalar Network.dyn_peer[103] 	lookupHopsSig:mean 	8.75
scalar Network.dyn_peer[104] 	lookupTimeSig:mean 	2.35
scalar Network.dyn_peer[104] 	lookupStabilitySig:mean 	0.64719101041555
scalar Network.dyn_peer[104] 	lookupHopsSig:mean 	23
scalar Network.dyn_peer[105] 	lookupTimeSig:mean 	1.44
scalar Network.dyn_peer[105] 	lookupStabilitySig:mean 	0.83235918115824
scalar Network.dyn_peer[105] 	lookupHopsSig:mean 	13.5
scalar Network.dyn_peer[106] 	lookupTimeSig:mean 	1.8636363636364
scalar Network.dyn_peer[106] 	lookupStabilitySig:mean 	0.9191997283223
scalar Network.dyn_peer[106] 	lookupHopsSig:mean 	17.727272727273
scalar Network.dyn_peer[107] 	lookupTimeSig:mean 	3.8333333333333
scalar Network.dyn_peer[107] 	lookupStabilitySig:mean 	0.021875997384389
scalar Network.dyn_peer[107] 	lookupHopsSig:mean 	37.666666666667
scalar Network.dyn_peer[108] 	lookupTimeSig:mean 	2.2666666666667
scalar Network.dyn_peer[108] 	lookupStabilitySig:mean 	-0.063087205092112
scalar Network.dyn_peer[108] 	lookupHopsSig:mean 	22
scalar Network.dyn_peer[109] 	lookupTimeSig:mean 	1.6
scalar Network.dyn_peer[109] 	lookupStabilitySig:mean 	-0.094871819019318
scalar Network.dyn_peer[109] 	lookupHopsSig:mean 	15.5
scalar Network.dyn_peer[110] 	lookupTimeSig:mean 	2.375
scalar Network.dyn_peer[110] 	lookupStabilitySig:mean 	0.73161556443665
scalar Network.dyn_peer[110] 	lookupHopsSig:mean 	22.875
scalar Network.dyn_peer[111] 	lookupTimeSig:mean 	1.7
scalar Network.dyn_peer[111] 	lookupStabilitySig:mean 	0.69332353291767
scalar Network.dyn_peer[111] 	lookupHopsSig:mean 	16.142857142857
scalar Network.dyn_peer[112] 	lookupTimeSig:mean 	2.7538461538462
scalar Network.dyn_peer[112] 	lookupStabilitySig:mean 	0.95717099194343
scalar Network.dyn_peer[112] 	lookupHopsSig:mean 	26.615384615385
scalar Network.dyn_peer[113] 	lookupTimeSig:mean 	4.5
scalar Network.dyn_peer[113] 	lookupStabilitySig:mean 	-0.30377363413572
scalar Network.dyn_peer[113] 	lookupHopsSig:mean 	44.5
scalar Network.dyn_peer[114] 	lookupTimeSig:mean 	1.6
scalar Network.dyn_peer[114] 	lookupStabilitySig:mean 	0.57058098260313
scalar Network.dyn_peer[114] 	lookupHopsSig:mean 	15.166666666667
scalar Network.dyn_peer[115] 	lookupTimeSig:mean 	1.325
scalar Network.dyn_peer[115] 	lookupStabilitySig:mean 	0.29866668209434
scalar Network.dyn_peer[115] 	lookupHopsSig:mean 	12.5
scalar Network.dyn_peer[116] 	lookupTimeSig:mean 	2.2
scalar Network.dyn_peer[116] 	lookupStabilitySig:mean 	0.49196136891842
scalar Network.dyn_peer[116] 	lookupHopsSig:mean 	21.2
scalar Network.dyn_peer[117] 	lookupTimeSig:mean 	1.6
scalar Network.dyn_peer[117] 	lookupStabilitySig:mean 	0.61333994261388
scalar Network.dyn_peer[117] 	lookupHopsSig:mean 	15.142857142857
scalar Network.dyn_peer[118] 	lookupTimeSig:mean 	2.4
scalar Network.dyn_peer[118] 	lookupStabilitySig:mean 	0.92861582423211
scalar Network.dyn_peer[118] 	lookupHopsSig:mean 	23.125
scalar Network.dyn_peer[119] 	lookupTimeSig:mean 	1.725
scalar Network.dyn_peer[119] 	lookupStabilitySig:mean 	0.39589203055948
scalar Network.dyn_peer[119] 	lookupHopsSig:mean 	16.5
scalar Network.dyn_peer[120] 	lookupTimeSig:mean 	1.875
scalar Network.dyn_peer[120] 	lookupStabilitySig:mean 	0.93269677917124
scalar Network.dyn_peer[120] 	lookupHopsSig:mean 	17.875
scalar Network.dyn_peer[121] 	lookupTimeSig:mean 	2.8
scalar Network.dyn_peer[121] 	lookupStabilitySig:mean 	0.2865685634315
scalar Network.dyn_peer[121] 	lookupHopsSig:mean 	27.25
scalar Network.dyn_peer[122] 	lookupTimeSig:mean 	3.0333333333333
scalar Network.dyn_peer[122] 	lookupStabilitySig:mean 	0.63060025125742
scalar Network.dyn_peer[122] 	lookupHopsSig:mean 	29.666666666667
scalar Network.dyn_peer[123] 	lookupTimeSig:mean 	1.9166666666667
scalar Network.dyn_peer[123] 	lookupStabilitySig:mean 	0.83540315056841
scalar Network.dyn_peer[123] 	lookupHopsSig:mean 	18.333333333333
scalar Network.dyn_peer[124] 	lookupTimeSig:mean 	1.9583333333333
scalar Network.dyn_peer[124] 	lookupStabilitySig:mean 	0.90711429447401
scalar Network.dyn_peer[124] 	lookupHopsSig:mean 	18.666666666667
scalar Network.dyn_peer[125] 	lookupTimeSig:mean 	2.1857142857143
scalar Network.dyn_peer[125] 	lookupStabilitySig:mean 	0.71875898739589
scalar Network.dyn_peer[125] 	lookupHopsSig:mean 	21
scalar Network.dyn_peer[126] 	lookupTimeSig:mean 	2.22
scalar Network.dyn_peer[126] 	lookupStabilitySig:mean 	0.81964608766139
scalar Network.dyn_peer[126] 	lookupHopsSig:mean 	21.4
scalar Network.dyn_peer[127] 	lookupTimeSig:mean 	2.1
scalar Network.dyn_peer[127] 	lookupStabilitySig:mean 	0.63248587648074
scalar Network.dyn_peer[127] 	lookupHopsSig:mean 	20.333333333333
scalar Network.dyn_peer[128] 	lookupTimeSig:mean 	1.6555555555556
scalar Network.dyn_peer[128] 	lookupStabilitySig:mean 	0.91422204704334
scalar Network.dyn_peer[128] 	lookupHopsSig:mean 	15.666666666667
scalar Network.dyn_peer[129] 	lookupTimeSig:mean 	1.3
scalar Network.dyn_peer[129] 	lookupStabilitySig:mean 	0.60820459450285
scalar Network.dyn_peer[129] 	lookupHopsSig:mean 	12.166666666667
scalar Network.dyn_peer[130] 	lookupTimeSig:mean 	1.325
scalar Network.dyn_peer[130] 	lookupStabilitySig:mean 	0.22402598336339
scalar Network.dyn_peer[130] 	lookupHopsSig:mean 	12.5
scalar Network.dyn_peer[131] 	lookupTimeSig:mean 	1.575
scalar Network.dyn_peer[131] 	lookupStabilitySig:mean 	0.72536070644855
scalar Network.dyn_peer[131] 	lookupHopsSig:mean 	15
scalar Network.dyn_peer[132] 	lookupTimeSig:mean 	1.9333333333333
scalar Network.dyn_peer[132] 	lookupStabilitySig:mean 	0.84806125145406
scalar Network.dyn_peer[132] 	lookupHopsSig:mean 	18.5
scalar Network.dyn_peer[133] 	lookupTimeSig:mean 	1.28125
scalar Network.dyn_peer[133] 	lookupStabilitySig:mean 	0.9181300154014
scalar Network.dyn_peer[133] 	lookupHopsSig:mean 	11.875
scalar Network.dyn_peer[134] 	lookupTimeSig:mean 	1.0857142857143
scalar Network.dyn_peer[134] 	lookupStabilitySig:mean 	0.5324654054961
scalar Network.dyn_peer[134] 	lookupHopsSig:mean 	10
scalar Network.dyn_peer[135] 	lookupTimeSig:mean 	1.1388888888889
scalar Network.dyn_peer[135] 	lookupStabilitySig:mean 	0.80937285143106
scalar Network.dyn_peer[135] 	lookupHopsSig:mean 	10.444444444444
scalar Network.dyn_peer[136] 	lookupTimeSig:mean 	2.7333333333333
scalar Network.dyn_peer[136] 	lookupStabilitySig:mean 	0.61404444277287
scalar Network.dyn_peer[136] 	lookupHopsSig:mean 	26.666666666667
scalar Network.dyn_peer[137] 	lookupTimeSig:mean 	1.7666666666667
scalar Network.dyn_peer[137] 	lookupStabilitySig:mean 	0.9574287796393
scalar Network.dyn_peer[137] 	lookupHopsSig:mean 	16.733333333333
scalar Network.dyn_peer[138] 	lookupTimeSig:mean 	2
scalar Network.dyn_peer[138] 	lookupStabilitySig:mean 	0.56382634810039
scalar Network.dyn_peer[138] 	lookupHopsSig:mean 	19.142857142857
scalar Network.dyn_peer[139] 	lookupTimeSig:mean 	3.2857142857143
scalar Network.dyn_peer[139] 	lookupStabilitySig:mean 	0.92302398064307
scalar Network.dyn_peer[139] 	lookupHopsSig:mean 	32
scalar Network.dyn_peer[140] 	lookupTimeSig:mean 	1.86
scalar Network.dyn_peer[140] 	lookupStabilitySig:mean 	0.82146643921733
scalar Network.dyn_peer[140] 	lookupHopsSig:mean 	17.8
scalar Network.dyn_peer[141] 	lookupTimeSig:mean 	1.6857142857143
scalar Network.dyn_peer[141] 	lookupStabilitySig:mean 	0.57121681688087
scalar Network.dyn_peer[141] 	lookupHopsSig:mean 	16
scalar Network.dyn_peer[142] 	lookupTimeSig:mean 	2.225
scalar Network.dyn_peer[142] 	lookupStabilitySig:mean 	0.73421855270863
scalar Network.dyn_peer[142] 	lookupHopsSig:mean 	21.5
scalar Network.dyn_peer[143] 	lookupTimeSig:mean 	1.525
scalar Network.dyn_peer[143] 	lookupStabilitySig:mean 	0.56684727221727
scalar Network.dyn_peer[143] 	lookupHopsSig:mean 	14.5
scalar Network.dyn_peer[144] 	lookupTimeSig:mean 	1.56
scalar Network.dyn_peer[144] 	lookupStabilitySig:mean 	0.52114217430353
scalar Network.dyn_peer[144] 	lookupHopsSig:mean 	14.8
scalar Network.dyn_peer[145] 	lookupTimeSig:mean 	2
scalar Network.dyn_peer[145] 	lookupStabilitySig:mean 	0.37198363741239
scalar Network.dyn_peer[145] 	lookupHopsSig:mean 	19.333333333333
scalar Network.dyn_peer[146] 	lookupTimeSig:mean 	1.4
scalar Network.dyn_peer[146] 	lookupStabilitySig:mean 	0.62693679518998
scalar Network.dyn_peer[146] 	lookupHopsSig:mean 	13.2
scalar Network.dyn_peer[147] 	lookupTimeSig:mean 	1.1857142857143
scalar Network.dyn_peer[147] 	lookupStabilitySig:mean 	0.59892119380778
scalar Network.dyn_peer[147] 	lookupHopsSig:mean 	11
scalar Network.dyn_peer[148] 	lookupTimeSig:mean 	1.5461538461538
scalar Network.dyn_peer[148] 	lookupStabilitySig:mean 	0.96385551174171
scalar Network.dyn_peer[148] 	lookupHopsSig:mean 	14.538461538462
scalar Network.dyn_peer[149] 	lookupTimeSig:mean 	1.3833333333333
scalar Network.dyn_peer[149] 	lookupStabilitySig:mean 	0.75925390926811
scalar Network.dyn_peer[149] 	lookupHopsSig:mean 	12.916666666667
scalar Network.dyn_peer[150] 	lookupTimeSig:mean 	2.32
scalar Network.dyn_peer[150] 	lookupStabilitySig:mean 	0.87322083599865
scalar Network.dyn_peer[150] 	lookupHopsSig:mean 	22.3
scalar Network.dyn_peer[151] 	lookupTimeSig:mean 	1.8
scalar Network.dyn_peer[151] 	lookupStabilitySig:mean 	0.24111110717058
scalar Network.dyn_peer[151] 	lookupHopsSig:mean 	17.5
scalar Network.dyn_peer[152] 	lookupTimeSig:mean 	3.025
scalar Network.dyn_peer[152] 	lookupStabilitySig:mean 	0.65167887508869
scalar Network.dyn_peer[152] 	lookupHopsSig:mean 	29.5
scalar Network.dyn_peer[153] 	lookupTimeSig:mean 	1.7090909090909
scalar Network.dyn_peer[153] 	lookupStabilitySig:mean 	0.75697567144578
scalar Network.dyn_peer[153] 	lookupHopsSig:mean 	16.181818181818
scalar Network.dyn_peer[154] 	lookupTimeSig:mean 	0.875
scalar Network.dyn_peer[154] 	lookupStabilitySig:mean 	0.29431573906913
scalar Network.dyn_peer[154] 	lookupHopsSig:mean 	8
scalar Network.dyn_peer[155] 	lookupTimeSig:mean 	1.45625
scalar Network.dyn_peer[155] 	lookupStabilitySig:mean 	0.80999229868758
scalar Network.dyn_peer[155] 	lookupHopsSig:mean 	13.625
scalar Network.dyn_peer[156] 	lookupTimeSig:mean 	2.8
scalar Network.dyn_peer[156] 	lookupStabilitySig:mean 	0.92608841788024
scalar Network.dyn_peer[156] 	lookupHopsSig:mean 	27.25
scalar Network.dyn_peer[157] 	lookupTimeSig:mean 	1.5571428571429
scalar Network.dyn_peer[157] 	lookupStabilitySig:mean 	0.70356097205409
scalar Network.dyn_peer[157] 	lookupHopsSig:mean 	14.714285714286
scalar Network.dyn_peer[158] 	lookupTimeSig:mean 	2.2
scalar Network.dyn_peer[158] 	lookupStabilitySig:mean 	0.79808448813856
scalar Network.dyn_peer[158] 	lookupHopsSig:mean 	21.25
scalar Network.dyn_peer[159] 	lookupTimeSig:mean 	2.85
scalar Network.dyn_peer[159] 	lookupStabilitySig:mean 	0.86220423458144
scalar Network.dyn_peer[159] 	lookupHopsSig:mean 	27.75
scalar Network.dyn_peer[160] 	lookupTimeSig:mean 	1.875
scalar Network.dyn_peer[160] 	lookupStabilitySig:mean 	0.69674764480442
scalar Network.dyn_peer[160] 	lookupHopsSig:mean 	18
scalar Network.dyn_peer[161] 	lookupTimeSig:mean 	2.075
scalar Network.dyn_peer[161] 	lookupStabilitySig:mean 	0.94691928150132
scalar Network.dyn_peer[161] 	lookupHopsSig:mean 	19.875
scalar Network.dyn_peer[162] 	lookupTimeSig:mean 	1.5333333333333
scalar Network.dyn_peer[162] 	lookupStabilitySig:mean 	0.80114816563825
scalar Network.dyn_peer[162] 	lookupHopsSig:mean 	14.5
scalar Network.dyn_peer[163] 	lookupTimeSig:mean 	1.5428571428571
scalar Network.dyn_peer[163] 	lookupStabilitySig:mean 	0.64643709148679
scalar Network.dyn_peer[163] 	lookupHopsSig:mean 	14.571428571429
scalar Network.dyn_peer[164] 	lookupTimeSig:mean 	2.2333333333333
scalar Network.dyn_peer[164] 	lookupStabilitySig:mean 	-0.043845338126024
scalar Network.dyn_peer[164] 	lookupHopsSig:mean 	21.666666666667
scalar Network.dyn_peer[165] 	lookupTimeSig:mean 	2.45
scalar Network.dyn_peer[165] 	lookupStabilitySig:mean 	0.77732557244599
scalar Network.dyn_peer[165] 	lookupHopsSig:mean 	23.75
scalar Network.dyn_peer[166] 	lookupTimeSig:mean 	2.14
scalar Network.dyn_peer[166] 	lookupStabilitySig:mean 	0.38777551576495
scalar Network.dyn_peer[166] 	lookupHopsSig:mean 	20.6
scalar Network.dyn_peer[167] 	lookupTimeSig:mean 	1.65
scalar Network.dyn_peer[167] 	lookupStabilitySig:mean 	0.15087615698576
scalar Network.dyn_peer[167] 	lookupHopsSig:mean 	15.75
scalar Network.dyn_peer[168] 	lookupTimeSig:mean 	2.05
scalar Network.dyn_peer[168] 	lookupStabilitySig:mean 	0.21418219059706
scalar Network.dyn_peer[168] 	lookupHopsSig:mean 	19.75
scalar Network.dyn_peer[169] 	lookupTimeSig:mean 	2.0875
scalar Network.dyn_peer[169] 	lookupStabilitySig:mean 	0.9288041847758
scalar Network.dyn_peer[169] 	lookupHopsSig:mean 	20
scalar Network.dyn_peer[170] 	lookupTimeSig:mean 	2.3857142857143
scalar Network.dyn_peer[170] 	lookupStabilitySig:mean 	0.82018129634006
scalar Network.dyn_peer[170] 	lookupHopsSig:mean 	23
scalar Network.dyn_peer[171] 	lookupTimeSig:mean 	2.3
scalar Network.dyn_peer[171] 	lookupStabilitySig:mean 	0.498553802073
scalar Network.dyn_peer[171] 	lookupHopsSig:mean 	22.2
scalar Network.dyn_peer[172] 	lookupTimeSig:mean 	1.225
scalar Network.dyn_peer[172] 	lookupStabilitySig:mean 	0.65843112347648
scalar Network.dyn_peer[172] 	lookupHopsSig:mean 	11.5
scalar Network.dyn_peer[173] 	lookupTimeSig:mean 	1.775
scalar Network.dyn_peer[173] 	lookupStabilitySig:mean 	0.86082717543468
scalar Network.dyn_peer[173] 	lookupHopsSig:mean 	17
scalar Network.dyn_peer[174] 	lookupTimeSig:mean 	2.0357142857143
scalar Network.dyn_peer[174] 	lookupStabilitySig:mean 	0.83561447695164
scalar Network.dyn_peer[174] 	lookupHopsSig:mean 	19.428571428571
scalar Network.dyn_peer[175] 	lookupTimeSig:mean 	2.0833333333333
scalar Network.dyn_peer[175] 	lookupStabilitySig:mean 	0.84614905528724
scalar Network.dyn_peer[175] 	lookupHopsSig:mean 	20
scalar Network.dyn_peer[176] 	lookupTimeSig:mean 	3.2333333333333
scalar Network.dyn_peer[176] 	lookupStabilitySig:mean 	0.84764103218913
scalar Network.dyn_peer[176] 	lookupHopsSig:mean 	31.666666666667
scalar Network.dyn_peer[177] 	lookupTimeSig:mean 	2.2545454545455
scalar Network.dyn_peer[177] 	lookupStabilitySig:mean 	0.93208341292021
scalar Network.dyn_peer[177] 	lookupHopsSig:mean 	21.636363636364
scalar Network.dyn_peer[178] 	lookupTimeSig:mean 	2.0857142857143
scalar Network.dyn_peer[178] 	lookupStabilitySig:mean 	0.75044229194256
scalar Network.dyn_peer[178] 	lookupHopsSig:mean 	20
scalar Network.dyn_peer[179] 	lookupTimeSig:mean 	2.2
scalar Network.dyn_peer[179] 	lookupStabilitySig:mean 	0.90937683859374
scalar Network.dyn_peer[179] 	lookupHopsSig:mean 	21.125
scalar Network.dyn_peer[180] 	lookupTimeSig:mean 	1.725
scalar Network.dyn_peer[180] 	lookupStabilitySig:mean 	0.26243460737169
scalar Network.dyn_peer[180] 	lookupHopsSig:mean 	16.5
scalar Network.dyn_peer[181] 	lookupTimeSig:mean 	3.475
scalar Network.dyn_peer[181] 	lookupStabilitySig:mean 	0.87353550468106
scalar Network.dyn_peer[181] 	lookupHopsSig:mean 	34
scalar Network.dyn_peer[182] 	lookupTimeSig:mean 	2.475
scalar Network.dyn_peer[182] 	lookupStabilitySig:mean 	0.71757508441806
scalar Network.dyn_peer[182] 	lookupHopsSig:mean 	24
scalar Network.dyn_peer[183] 	lookupTimeSig:mean 	2.325
scalar Network.dyn_peer[183] 	lookupStabilitySig:mean 	0.73022526875138
scalar Network.dyn_peer[183] 	lookupHopsSig:mean 	22.5
scalar Network.dyn_peer[184] 	lookupTimeSig:mean 	2.475
scalar Network.dyn_peer[184] 	lookupStabilitySig:mean 	0.66669469076442
scalar Network.dyn_peer[184] 	lookupHopsSig:mean 	23.875
scalar Network.dyn_peer[185] 	lookupTimeSig:mean 	2.3
scalar Network.dyn_peer[185] 	lookupStabilitySig:mean 	0.060606047511101
scalar Network.dyn_peer[185] 	lookupHopsSig:mean 	22.5
scalar Network.dyn_peer[186] 	lookupTimeSig:mean 	1.1857142857143
scalar Network.dyn_peer[186] 	lookupStabilitySig:mean 	0.59856139229877
scalar Network.dyn_peer[186] 	lookupHopsSig:mean 	11
scalar Network.dyn_peer[187] 	lookupTimeSig:mean 	2.675
scalar Network.dyn_peer[187] 	lookupStabilitySig:mean 	0.28405297081918
scalar Network.dyn_peer[187] 	lookupHopsSig:mean 	26
scalar Network.dyn_peer[188] 	lookupTimeSig:mean 	1.5666666666667
scalar Network.dyn_peer[188] 	lookupStabilitySig:mean 	0.80279099444548
scalar Network.dyn_peer[188] 	lookupHopsSig:mean 	14.833333333333
scalar Network.dyn_peer[189] 	lookupTimeSig:mean 	1.7714285714286
scalar Network.dyn_peer[189] 	lookupStabilitySig:mean 	0.93190618511289
scalar Network.dyn_peer[189] 	lookupHopsSig:mean 	16.857142857143
scalar Network.dyn_peer[190] 	lookupTimeSig:mean 	2.275
scalar Network.dyn_peer[190] 	lookupStabilitySig:mean 	0.73810186237097
scalar Network.dyn_peer[190] 	lookupHopsSig:mean 	22
scalar Network.dyn_peer[191] 	lookupTimeSig:mean 	2.7333333333333
scalar Network.dyn_peer[191] 	lookupStabilitySig:mean 	0.90263492179414
scalar Network.dyn_peer[191] 	lookupHopsSig:mean 	26.5
scalar Network.dyn_peer[192] 	lookupTimeSig:mean 	1.8375
scalar Network.dyn_peer[192] 	lookupStabilitySig:mean 	0.75408904999495
scalar Network.dyn_peer[192] 	lookupHopsSig:mean 	17.5
scalar Network.dyn_peer[193] 	lookupTimeSig:mean 	1.3
scalar Network.dyn_peer[193] 	lookupStabilitySig:mean 	-0.087301567196846
scalar Network.dyn_peer[193] 	lookupHopsSig:mean 	12.5
scalar Network.dyn_peer[194] 	lookupTimeSig:mean 	2.08
scalar Network.dyn_peer[194] 	lookupStabilitySig:mean 	0.63454140163958
scalar Network.dyn_peer[194] 	lookupHopsSig:mean 	20
scalar Network.dyn_peer[195] 	lookupTimeSig:mean 	2.875
scalar Network.dyn_peer[195] 	lookupStabilitySig:mean 	0.79809394851327
scalar Network.dyn_peer[195] 	lookupHopsSig:mean 	28
scalar Network.dyn_peer[196] 	lookupTimeSig:mean 	2.12
scalar Network.dyn_peer[196] 	lookupStabilitySig:mean 	0.64941218197346
scalar Network.dyn_peer[196] 	lookupHopsSig:mean 	20.4
scalar Network.dyn_peer[197] 	lookupTimeSig:mean 	1.8833333333333
scalar Network.dyn_peer[197] 	lookupStabilitySig:mean 	0.58626343449578
scalar Network.dyn_peer[197] 	lookupHopsSig:mean 	18
scalar Network.dyn_peer[198] 	lookupTimeSig:mean 	4.3
scalar Network.dyn_peer[198] 	lookupStabilitySig:mean 	0.57942526787519
scalar Network.dyn_peer[198] 	lookupHopsSig:mean 	42.333333333333
scalar Network.dyn_peer[199] 	lookupTimeSig:mean 	3.6
scalar Network.dyn_peer[199] 	lookupStabilitySig:mean 	0.7622693721205
scalar Network.dyn_peer[199] 	lookupHopsSig:mean 	35.25
scalar Network.dyn_peer[200] 	lookupTimeSig:mean 	1.94
scalar Network.dyn_peer[200] 	lookupStabilitySig:mean 	0.46199641525745
scalar Network.dyn_peer[200] 	lookupHopsSig:mean 	18.6
scalar Network.dyn_peer[201] 	lookupTimeSig:mean 	1.625
scalar Network.dyn_peer[201] 	lookupStabilitySig:mean 	0.90967354108579
scalar Network.dyn_peer[201] 	lookupHopsSig:mean 	15.375
scalar Network.dyn_peer[202] 	lookupTimeSig:mean 	2.46
scalar Network.dyn_peer[202] 	lookupStabilitySig:mean 	0.68076097294688
scalar Network.dyn_peer[202] 	lookupHopsSig:mean 	23.8
scalar Network.dyn_peer[203] 	lookupTimeSig:mean 	1.9
scalar Network.dyn_peer[203] 	lookupStabilitySig:mean 	0.49206461012363
scalar Network.dyn_peer[203] 	lookupHopsSig:mean 	18.333333333333
scalar Network.dyn_peer[204] 	lookupTimeSig:mean 	2.1
scalar Network.dyn_peer[204] 	lookupStabilitySig:mean 	0.026781325538953
scalar Network.dyn_peer[204] 	lookupHopsSig:mean 	20.333333333333
scalar Network.dyn_peer[205] 	lookupTimeSig:mean 	2.2333333333333
scalar Network.dyn_peer[205] 	lookupStabilitySig:mean 	0.73041100551685
scalar Network.dyn_peer[205] 	lookupHopsSig:mean 	21.5
scalar Network.dyn_peer[206] 	lookupTimeSig:mean 	2.925
scalar Network.dyn_peer[206] 	lookupStabilitySig:mean 	0.46487324312329
scalar Network.dyn_peer[206] 	lookupHopsSig:mean 	28.5
scalar Network.dyn_peer[207] 	lookupTimeSig:mean 	2.3428571428571
scalar Network.dyn_peer[207] 	lookupStabilitySig:mean 	0.68556443575237
scalar Network.dyn_peer[207] 	lookupHopsSig:mean 	22.571428571429
scalar Network.dyn_peer[208] 	lookupTimeSig:mean 	1.7181818181818
scalar Network.dyn_peer[208] 	lookupStabilitySig:mean 	0.79647868702357
scalar Network.dyn_peer[208] 	lookupHopsSig:mean 	16.272727272727
scalar Network.dyn_peer[209] 	lookupTimeSig:mean 	2.08
scalar Network.dyn_peer[209] 	lookupStabilitySig:mean 	0.55202867202461
scalar Network.dyn_peer[209] 	lookupHopsSig:mean 	20
scalar Network.dyn_peer[210] 	lookupTimeSig:mean 	2.85
scalar Network.dyn_peer[210] 	lookupStabilitySig:mean 	0.62489875825122
scalar Network.dyn_peer[210] 	lookupHopsSig:mean 	27.75
scalar Network.dyn_peer[211] 	lookupTimeSig:mean 	1.725
scalar Network.dyn_peer[211] 	lookupStabilitySig:mean 	0.68264885596
scalar Network.dyn_peer[211] 	lookupHopsSig:mean 	16.375
scalar Network.dyn_peer[212] 	lookupTimeSig:mean 	2.6666666666667
scalar Network.dyn_peer[212] 	lookupStabilitySig:mean 	0.076920300722122
scalar Network.dyn_peer[212] 	lookupHopsSig:mean 	26
scalar Network.dyn_peer[213] 	lookupTimeSig:mean 	1.9285714285714
scalar Network.dyn_peer[213] 	lookupStabilitySig:mean 	0.62528349592217
scalar Network.dyn_peer[213] 	lookupHopsSig:mean 	18.428571428571
scalar Network.dyn_peer[214] 	lookupTimeSig:mean 	2.18
scalar Network.dyn_peer[214] 	lookupStabilitySig:mean 	0.90682473145425
scalar Network.dyn_peer[214] 	lookupHopsSig:mean 	20.9
scalar Network.dyn_peer[215] 	lookupTimeSig:mean 	2.6857142857143
scalar Network.dyn_peer[215] 	lookupStabilitySig:mean 	0.90071920797761
scalar Network.dyn_peer[215] 	lookupHopsSig:mean 	26
scalar Network.dyn_peer[216] 	lookupTimeSig:mean 	2.1666666666667
scalar Network.dyn_peer[216] 	lookupStabilitySig:mean 	0.768180200054
scalar Network.dyn_peer[216] 	lookupHopsSig:mean 	20.833333333333
scalar Network.dyn_peer[217] 	lookupTimeSig:mean 	2.3
scalar Network.dyn_peer[217] 	lookupStabilitySig:mean 	0.38888888806105
scalar Network.dyn_peer[217] 	lookupHopsSig:mean 	22.5
scalar Network.dyn_peer[218] 	lookupTimeSig:mean 	1.825
scalar Network.dyn_peer[218] 	lookupStabilitySig:mean 	0.66646700073034
scalar Network.dyn_peer[218] 	lookupHopsSig:mean 	17.5
scalar Network.dyn_peer[219] 	lookupTimeSig:mean 	3.3
scalar Network.dyn_peer[219] 	lookupStabilitySig:mean 	0.54577113687992
scalar Network.dyn_peer[219] 	lookupHopsSig:mean 	32.5
scalar Network.dyn_peer[220] 	lookupTimeSig:mean 	2.2333333333333
scalar Network.dyn_peer[220] 	lookupStabilitySig:mean 	0.71308015597363
scalar Network.dyn_peer[220] 	lookupHopsSig:mean 	21.5
scalar Network.dyn_peer[221] 	lookupTimeSig:mean 	3.45
scalar Network.dyn_peer[221] 	lookupStabilitySig:mean 	0.60530283302069
scalar Network.dyn_peer[221] 	lookupHopsSig:mean 	34
scalar Network.dyn_peer[222] 	lookupTimeSig:mean 	1.9
scalar Network.dyn_peer[222] 	lookupStabilitySig:mean 	0.86198999763777
scalar Network.dyn_peer[222] 	lookupHopsSig:mean 	18.166666666667
scalar Network.dyn_peer[223] 	lookupTimeSig:mean 	2.0727272727273
scalar Network.dyn_peer[223] 	lookupStabilitySig:mean 	0.88809420803392
scalar Network.dyn_peer[223] 	lookupHopsSig:mean 	19.818181818182
scalar Network.dyn_peer[224] 	lookupTimeSig:mean 	1.7666666666667
scalar Network.dyn_peer[224] 	lookupStabilitySig:mean 	0.51251165320476
scalar Network.dyn_peer[224] 	lookupHopsSig:mean 	17
scalar Network.dyn_peer[225] 	lookupTimeSig:mean 	1.05
scalar Network.dyn_peer[225] 	lookupStabilitySig:mean 	0.72678443292777
scalar Network.dyn_peer[225] 	lookupHopsSig:mean 	9.6666666666667
scalar Network.dyn_peer[226] 	lookupTimeSig:mean 	1.7142857142857
scalar Network.dyn_peer[226] 	lookupStabilitySig:mean 	0.94573202636093
scalar Network.dyn_peer[226] 	lookupHopsSig:mean 	16.214285714286
scalar Network.dyn_peer[227] 	lookupTimeSig:mean 	1.275
scalar Network.dyn_peer[227] 	lookupStabilitySig:mean 	0.40527065657079
scalar Network.dyn_peer[227] 	lookupHopsSig:mean 	12
scalar Network.dyn_peer[228] 	lookupTimeSig:mean 	2.575
scalar Network.dyn_peer[228] 	lookupStabilitySig:mean 	0.87568289460614
scalar Network.dyn_peer[228] 	lookupHopsSig:mean 	25
scalar Network.dyn_peer[229] 	lookupTimeSig:mean 	2.2333333333333
scalar Network.dyn_peer[229] 	lookupStabilitySig:mean 	0.6574370674789
scalar Network.dyn_peer[229] 	lookupHopsSig:mean 	21.666666666667
scalar Network.dyn_peer[230] 	lookupTimeSig:mean 	2.48
scalar Network.dyn_peer[230] 	lookupStabilitySig:mean 	0.8950368873775
scalar Network.dyn_peer[230] 	lookupHopsSig:mean 	24
scalar Network.dyn_peer[231] 	lookupTimeSig:mean 	2.2444444444444
scalar Network.dyn_peer[231] 	lookupStabilitySig:mean 	0.91248339011023
scalar Network.dyn_peer[231] 	lookupHopsSig:mean 	21.555555555556
scalar Network.dyn_peer[232] 	lookupTimeSig:mean 	1.72
scalar Network.dyn_peer[232] 	lookupStabilitySig:mean 	0.67984860874712
scalar Network.dyn_peer[232] 	lookupHopsSig:mean 	16.3
scalar Network.dyn_peer[233] 	lookupTimeSig:mean 	2.125
scalar Network.dyn_peer[233] 	lookupStabilitySig:mean 	0.58688816614449
scalar Network.dyn_peer[233] 	lookupHopsSig:mean 	20.5
scalar Network.dyn_peer[234] 	lookupTimeSig:mean 	1.3
scalar Network.dyn_peer[234] 	lookupStabilitySig:mean 	0.42330385297537
scalar Network.dyn_peer[234] 	lookupHopsSig:mean 	12.2
scalar Network.dyn_peer[235] 	lookupTimeSig:mean 	0.9875
scalar Network.dyn_peer[235] 	lookupStabilitySig:mean 	0.72948491800344
scalar Network.dyn_peer[235] 	lookupHopsSig:mean 	9
scalar Network.dyn_peer[236] 	lookupTimeSig:mean 	1.88
scalar Network.dyn_peer[236] 	lookupStabilitySig:mean 	0.67170380018651
scalar Network.dyn_peer[236] 	lookupHopsSig:mean 	18
scalar Network.dyn_peer[237] 	lookupTimeSig:mean 	2.2166666666667
scalar Network.dyn_peer[237] 	lookupStabilitySig:mean 	0.78734063481291
scalar Network.dyn_peer[237] 	lookupHopsSig:mean 	21.333333333333
scalar Network.dyn_peer[238] 	lookupTimeSig:mean 	1.9333333333333
scalar Network.dyn_peer[238] 	lookupStabilitySig:mean 	0.86055326585968
scalar Network.dyn_peer[238] 	lookupHopsSig:mean 	18.5
scalar Network.dyn_peer[239] 	lookupTimeSig:mean 	1.7666666666667
scalar Network.dyn_peer[239] 	lookupStabilitySig:mean 	0.86859055096284
scalar Network.dyn_peer[239] 	lookupHopsSig:mean 	16.833333333333
scalar Network.dyn_peer[240] 	lookupTimeSig:mean 	2.4857142857143
scalar Network.dyn_peer[240] 	lookupStabilitySig:mean 	0.91820582268494
scalar Network.dyn_peer[240] 	lookupHopsSig:mean 	24
scalar Network.dyn_peer[241] 	lookupTimeSig:mean 	2.05
scalar Network.dyn_peer[241] 	lookupStabilitySig:mean 	0.90755941811949
scalar Network.dyn_peer[241] 	lookupHopsSig:mean 	19.625
scalar Network.dyn_peer[242] 	lookupTimeSig:mean 	1.6833333333333
scalar Network.dyn_peer[242] 	lookupStabilitySig:mean 	0.47484883417686
scalar Network.dyn_peer[242] 	lookupHopsSig:mean 	16
scalar Network.dyn_peer[243] 	lookupTimeSig:mean 	2.0875
scalar Network.dyn_peer[243] 	lookupStabilitySig:mean 	0.76949236425571
scalar Network.dyn_peer[243] 	lookupHopsSig:mean 	20
scalar Network.dyn_peer[244] 	lookupTimeSig:mean 	1.62
scalar Network.dyn_peer[244] 	lookupStabilitySig:mean 	0.78299394026399
scalar Network.dyn_peer[244] 	lookupHopsSig:mean 	15.4
scalar Network.dyn_peer[245] 	lookupTimeSig:mean 	1.75
scalar Network.dyn_peer[245] 	lookupStabilitySig:mean 	0.55409795138985
scalar Network.dyn_peer[245] 	lookupHopsSig:mean 	16.75
scalar Network.dyn_peer[246] 	lookupTimeSig:mean 	2.0714285714286
scalar Network.dyn_peer[246] 	lookupStabilitySig:mean 	0.6964195968051
scalar Network.dyn_peer[246] 	lookupHopsSig:mean 	19.857142857143
scalar Network.dyn_peer[247] 	lookupTimeSig:mean 	1.3166666666667
scalar Network.dyn_peer[247] 	lookupStabilitySig:mean 	0.74192612067175
scalar Network.dyn_peer[247] 	lookupHopsSig:mean 	12.333333333333
scalar Network.dyn_peer[248] 	lookupTimeSig:mean 	3
scalar Network.dyn_peer[248] 	lookupStabilitySig:mean 	0.44104527185361
scalar Network.dyn_peer[248] 	lookupHopsSig:mean 	29.333333333333
scalar Network.dyn_peer[249] 	lookupTimeSig:mean 	1.2428571428571
scalar Network.dyn_peer[249] 	lookupStabilitySig:mean 	0.57274808468563
scalar Network.dyn_peer[249] 	lookupHopsSig:mean 	11.571428571429
scalar Network.dyn_peer[250] 	lookupTimeSig:mean 	1.7444444444444
scalar Network.dyn_peer[250] 	lookupStabilitySig:mean 	0.87514700150738
scalar Network.dyn_peer[250] 	lookupHopsSig:mean 	16.555555555556
scalar Network.dyn_peer[251] 	lookupTimeSig:mean 	2.1166666666667
scalar Network.dyn_peer[251] 	lookupStabilitySig:mean 	0.59082613295565
scalar Network.dyn_peer[251] 	lookupHopsSig:mean 	20.333333333333
scalar Network.dyn_peer[252] 	lookupTimeSig:mean 	1.49
scalar Network.dyn_peer[252] 	lookupStabilitySig:mean 	0.84187379749492
scalar Network.dyn_peer[252] 	lookupHopsSig:mean 	14
scalar Network.dyn_peer[253] 	lookupTimeSig:mean 	2.1428571428571
scalar Network.dyn_peer[253] 	lookupStabilitySig:mean 	0.90022979700007
scalar Network.dyn_peer[253] 	lookupHopsSig:mean 	20.571428571429
scalar Network.dyn_peer[254] 	lookupTimeSig:mean 	0.98571428571429
scalar Network.dyn_peer[254] 	lookupStabilitySig:mean 	0.76966449664906
scalar Network.dyn_peer[254] 	lookupHopsSig:mean 	9
scalar Network.dyn_peer[255] 	lookupTimeSig:mean 	1.58
scalar Network.dyn_peer[255] 	lookupStabilitySig:mean 	0.73936412148178
scalar Network.dyn_peer[255] 	lookupHopsSig:mean 	15
scalar Network.dyn_peer[256] 	lookupTimeSig:mean 	4.4
scalar Network.dyn_peer[256] 	lookupStabilitySig:mean 	0.48661201447248
scalar Network.dyn_peer[256] 	lookupHopsSig:mean 	43.5
scalar Network.dyn_peer[257] 	lookupTimeSig:mean 	1.96
scalar Network.dyn_peer[257] 	lookupStabilitySig:mean 	0.67014304846525
scalar Network.dyn_peer[257] 	lookupHopsSig:mean 	18.8
scalar Network.dyn_peer[258] 	lookupTimeSig:mean 	1.5181818181818
scalar Network.dyn_peer[258] 	lookupStabilitySig:mean 	0.90585220914165
scalar Network.dyn_peer[258] 	lookupHopsSig:mean 	14.272727272727
scalar Network.dyn_peer[259] 	lookupTimeSig:mean 	1.7625
scalar Network.dyn_peer[259] 	lookupStabilitySig:mean 	0.91171186527936
scalar Network.dyn_peer[259] 	lookupHopsSig:mean 	16.75
scalar Network.dyn_peer[260] 	lookupTimeSig:mean 	1.6166666666667
scalar Network.dyn_peer[260] 	lookupStabilitySig:mean 	0.95513173394526
scalar Network.dyn_peer[260] 	lookupHopsSig:mean 	15.25
scalar Network.dyn_peer[261] 	lookupTimeSig:mean 	3.6
scalar Network.dyn_peer[261] 	lookupStabilitySig:mean 	0.88180655520409
scalar Network.dyn_peer[261] 	lookupHopsSig:mean 	35.25
scalar Network.dyn_peer[262] 	lookupTimeSig:mean 	2.1
scalar Network.dyn_peer[262] 	lookupStabilitySig:mean 	0.64861352027704
scalar Network.dyn_peer[262] 	lookupHopsSig:mean 	20.166666666667
scalar Network.dyn_peer[263] 	lookupTimeSig:mean 	1.9833333333333
scalar Network.dyn_peer[263] 	lookupStabilitySig:mean 	0.87845049767445
scalar Network.dyn_peer[263] 	lookupHopsSig:mean 	19
scalar Network.dyn_peer[264] 	lookupTimeSig:mean 	2.3
scalar Network.dyn_peer[264] 	lookupStabilitySig:mean 	0.51002949476242
scalar Network.dyn_peer[264] 	lookupHopsSig:mean 	22.333333333333
scalar Network.dyn_peer[265] 	lookupTimeSig:mean 	2.0125
scalar Network.dyn_peer[265] 	lookupStabilitySig:mean 	0.79460317851044
scalar Network.dyn_peer[265] 	lookupHopsSig:mean 	19.25
scalar Network.dyn_peer[266] 	lookupTimeSig:mean 	3.225
scalar Network.dyn_peer[266] 	lookupStabilitySig:mean 	0.84018353000283
scalar Network.dyn_peer[266] 	lookupHopsSig:mean 	31.5
scalar Network.dyn_peer[267] 	lookupTimeSig:mean 	1.7833333333333
scalar Network.dyn_peer[267] 	lookupStabilitySig:mean 	0.97297040098864
scalar Network.dyn_peer[267] 	lookupHopsSig:mean 	16.888888888889
scalar Network.dyn_peer[268] 	lookupTimeSig:mean 	1.8111111111111
scalar Network.dyn_peer[268] 	lookupStabilitySig:mean 	0.69315439152221
scalar Network.dyn_peer[268] 	lookupHopsSig:mean 	17.222222222222
scalar Network.dyn_peer[269] 	lookupTimeSig:mean 	1.875
scalar Network.dyn_peer[269] 	lookupStabilitySig:mean 	0.5943504255265
scalar Network.dyn_peer[269] 	lookupHopsSig:mean 	18
scalar Network.dyn_peer[270] 	lookupTimeSig:mean 	2.825
scalar Network.dyn_peer[270] 	lookupStabilitySig:mean 	0.80922909360379
scalar Network.dyn_peer[270] 	lookupHopsSig:mean 	27.5
scalar Network.dyn_peer[271] 	lookupTimeSig:mean 	1.06
scalar Network.dyn_peer[271] 	lookupStabilitySig:mean 	0.78950401395559
scalar Network.dyn_peer[271] 	lookupHopsSig:mean 	9.8
scalar Network.dyn_peer[272] 	lookupTimeSig:mean 	2.0214285714286
scalar Network.dyn_peer[272] 	lookupStabilitySig:mean 	0.97225263139366
scalar Network.dyn_peer[272] 	lookupHopsSig:mean 	19.285714285714
scalar Network.dyn_peer[273] 	lookupTimeSig:mean 	2.775
scalar Network.dyn_peer[273] 	lookupStabilitySig:mean 	0.84064920898527
scalar Network.dyn_peer[273] 	lookupHopsSig:mean 	27
scalar Network.dyn_peer[274] 	lookupTimeSig:mean 	1.6533333333333
scalar Network.dyn_peer[274] 	lookupStabilitySig:mean 	0.93407749449834
scalar Network.dyn_peer[274] 	lookupHopsSig:mean 	15.6
scalar Network.dyn_peer[275] 	lookupTimeSig:mean 	2.04
scalar Network.dyn_peer[275] 	lookupStabilitySig:mean 	0.81967394025996
scalar Network.dyn_peer[275] 	lookupHopsSig:mean 	19.6
scalar Network.dyn_peer[276] 	lookupTimeSig:mean 	3.0333333333333
scalar Network.dyn_peer[276] 	lookupStabilitySig:mean 	0.77847719813387
scalar Network.dyn_peer[276] 	lookupHopsSig:mean 	29.666666666667
scalar Network.dyn_peer[277] 	lookupTimeSig:mean 	1.45
scalar Network.dyn_peer[277] 	lookupStabilitySig:mean 	0.58182563042889
scalar Network.dyn_peer[277] 	lookupHopsSig:mean 	13.666666666667
scalar Network.dyn_peer[278] 	lookupTimeSig:mean 	1.7
scalar Network.dyn_peer[278] 	lookupStabilitySig:mean 	0.42986837774515
scalar Network.dyn_peer[278] 	lookupHopsSig:mean 	16.333333333333
scalar Network.dyn_peer[279] 	lookupTimeSig:mean 	1.5333333333333
scalar Network.dyn_peer[279] 	lookupStabilitySig:mean 	0.50967740515868
scalar Network.dyn_peer[279] 	lookupHopsSig:mean 	14.666666666667
scalar Network.dyn_peer[280] 	lookupTimeSig:mean 	3
scalar Network.dyn_peer[280] 	lookupStabilitySig:mean 	0.87553357426077
scalar Network.dyn_peer[280] 	lookupHopsSig:mean 	29.25
scalar Network.dyn_peer[281] 	lookupTimeSig:mean 	1.4571428571429
scalar Network.dyn_peer[281] 	lookupStabilitySig:mean 	0.80614566882806
scalar Network.dyn_peer[281] 	lookupHopsSig:mean 	13.714285714286
scalar Network.dyn_peer[282] 	lookupTimeSig:mean 	1.9642857142857
scalar Network.dyn_peer[282] 	lookupStabilitySig:mean 	0.9429275682196
scalar Network.dyn_peer[282] 	lookupHopsSig:mean 	18.714285714286
scalar Network.dyn_peer[283] 	lookupTimeSig:mean 	1.3142857142857
scalar Network.dyn_peer[283] 	lookupStabilitySig:mean 	0.62080426194838
scalar Network.dyn_peer[283] 	lookupHopsSig:mean 	12.285714285714
scalar Network.dyn_peer[284] 	lookupTimeSig:mean 	1.64
scalar Network.dyn_peer[284] 	lookupStabilitySig:mean 	0.94307954357937
scalar Network.dyn_peer[284] 	lookupHopsSig:mean 	15.5
scalar Network.dyn_peer[285] 	lookupTimeSig:mean 	2.0166666666667
scalar Network.dyn_peer[285] 	lookupStabilitySig:mean 	0.83379805988322
scalar Network.dyn_peer[285] 	lookupHopsSig:mean 	19.333333333333
scalar Network.dyn_peer[286] 	lookupTimeSig:mean 	1.66
scalar Network.dyn_peer[286] 	lookupStabilitySig:mean 	0.84050868358463
scalar Network.dyn_peer[286] 	lookupHopsSig:mean 	15.8
scalar Network.dyn_peer[287] 	lookupTimeSig:mean 	1.75
scalar Network.dyn_peer[287] 	lookupStabilitySig:mean 	0.38022165745497
scalar Network.dyn_peer[287] 	lookupHopsSig:mean 	17
scalar Network.dyn_peer[288] 	lookupTimeSig:mean 	3.75
scalar Network.dyn_peer[288] 	lookupStabilitySig:mean 	0.54146154969931
scalar Network.dyn_peer[288] 	lookupHopsSig:mean 	37
scalar Network.dyn_peer[289] 	lookupTimeSig:mean 	2.45
scalar Network.dyn_peer[289] 	lookupStabilitySig:mean 	0.36916996538639
scalar Network.dyn_peer[289] 	lookupHopsSig:mean 	24
scalar Network.dyn_peer[290] 	lookupTimeSig:mean 	1.96
scalar Network.dyn_peer[290] 	lookupStabilitySig:mean 	0.45350087918341
scalar Network.dyn_peer[290] 	lookupHopsSig:mean 	18.8
scalar Network.dyn_peer[291] 	lookupTimeSig:mean 	1.98
scalar Network.dyn_peer[291] 	lookupStabilitySig:mean 	0.70097550749779
scalar Network.dyn_peer[291] 	lookupHopsSig:mean 	19
scalar Network.dyn_peer[292] 	lookupTimeSig:mean 	2.0714285714286
scalar Network.dyn_peer[292] 	lookupStabilitySig:mean 	0.7570921400828
scalar Network.dyn_peer[292] 	lookupHopsSig:mean 	19.857142857143
scalar Network.dyn_peer[293] 	lookupTimeSig:mean 	2.0222222222222
scalar Network.dyn_peer[293] 	lookupStabilitySig:mean 	0.94676306688537
scalar Network.dyn_peer[293] 	lookupHopsSig:mean 	19.333333333333
scalar Network.dyn_peer[294] 	lookupTimeSig:mean 	1.9666666666667
scalar Network.dyn_peer[294] 	lookupStabilitySig:mean 	0.7960907913641
scalar Network.dyn_peer[294] 	lookupHopsSig:mean 	18.777777777778
scalar Network.dyn_peer[295] 	lookupTimeSig:mean 	1.86
scalar Network.dyn_peer[295] 	lookupStabilitySig:mean 	0.77967177033424
scalar Network.dyn_peer[295] 	lookupHopsSig:mean 	17.8
scalar Network.dyn_peer[296] 	lookupTimeSig:mean 	2.3428571428571
scalar Network.dyn_peer[296] 	lookupStabilitySig:mean 	0.89438887499273
scalar Network.dyn_peer[296] 	lookupHopsSig:mean 	22.571428571429
scalar Network.dyn_peer[297] 	lookupTimeSig:mean 	3.25
scalar Network.dyn_peer[297] 	lookupStabilitySig:mean 	0.80270990729332
scalar Network.dyn_peer[297] 	lookupHopsSig:mean 	31.75
scalar Network.dyn_peer[298] 	lookupTimeSig:mean 	3.14
scalar Network.dyn_peer[298] 	lookupStabilitySig:mean 	0.90479836538434
scalar Network.dyn_peer[298] 	lookupHopsSig:mean 	30.6
scalar Network.dyn_peer[299] 	lookupTimeSig:mean 	3.6333333333333
scalar Network.dyn_peer[299] 	lookupStabilitySig:mean 	0.76616559674342
scalar Network.dyn_peer[299] 	lookupHopsSig:mean 	35.666666666667
scalar Network.dyn_peer[300] 	lookupTimeSig:mean 	1.45
scalar Network.dyn_peer[300] 	lookupStabilitySig:mean 	0.40709876269102
scalar Network.dyn_peer[300] 	lookupHopsSig:mean 	13.75
scalar Network.dyn_peer[301] 	lookupTimeSig:mean 	1.82
scalar Network.dyn_peer[301] 	lookupStabilitySig:mean 	0.81443304270506
scalar Network.dyn_peer[301] 	lookupHopsSig:mean 	17.4
scalar Network.dyn_peer[302] 	lookupTimeSig:mean 	1.85
scalar Network.dyn_peer[302] 	lookupStabilitySig:mean 	0.91786052612588
scalar Network.dyn_peer[302] 	lookupHopsSig:mean 	17.6
scalar Network.dyn_peer[303] 	lookupTimeSig:mean 	2.0272727272727
scalar Network.dyn_peer[303] 	lookupStabilitySig:mean 	0.94042949590155
scalar Network.dyn_peer[303] 	lookupHopsSig:mean 	19.363636363636
scalar Network.dyn_peer[304] 	lookupTimeSig:mean 	2.775
scalar Network.dyn_peer[304] 	lookupStabilitySig:mean 	0.88756074756384
scalar Network.dyn_peer[304] 	lookupHopsSig:mean 	27
scalar Network.dyn_peer[305] 	lookupTimeSig:mean 	1.85
scalar Network.dyn_peer[305] 	lookupStabilitySig:mean 	0.78543308726512
scalar Network.dyn_peer[305] 	lookupHopsSig:mean 	17.625
scalar Network.dyn_peer[306] 	lookupTimeSig:mean 	3.9333333333333
scalar Network.dyn_peer[306] 	lookupStabilitySig:mean 	0.36424308270216
scalar Network.dyn_peer[306] 	lookupHopsSig:mean 	38.666666666667
scalar Network.dyn_peer[307] 	lookupTimeSig:mean 	2.5666666666667
scalar Network.dyn_peer[307] 	lookupStabilitySig:mean 	0.64135653773944
scalar Network.dyn_peer[307] 	lookupHopsSig:mean 	25
scalar Network.dyn_peer[308] 	lookupTimeSig:mean 	2.1
scalar Network.dyn_peer[308] 	lookupStabilitySig:mean 	0.69661884456873
scalar Network.dyn_peer[308] 	lookupHopsSig:mean 	20.2
scalar Network.dyn_peer[309] 	lookupTimeSig:mean 	2.1571428571429
scalar Network.dyn_peer[309] 	lookupStabilitySig:mean 	0.85424620658159
scalar Network.dyn_peer[309] 	lookupHopsSig:mean 	20.714285714286
scalar Network.dyn_peer[310] 	lookupTimeSig:mean 	1.2
scalar Network.dyn_peer[310] 	lookupStabilitySig:mean 	0.63359788944945
scalar Network.dyn_peer[310] 	lookupHopsSig:mean 	11.25
scalar Network.dyn_peer[311] 	lookupTimeSig:mean 	2.3142857142857
scalar Network.dyn_peer[311] 	lookupStabilitySig:mean 	0.929668158958
scalar Network.dyn_peer[311] 	lookupHopsSig:mean 	22.285714285714
scalar Network.dyn_peer[312] 	lookupTimeSig:mean 	1.4666666666667
scalar Network.dyn_peer[312] 	lookupStabilitySig:mean 	0.4197554787
scalar Network.dyn_peer[312] 	lookupHopsSig:mean 	14
scalar Network.dyn_peer[313] 	lookupTimeSig:mean 	1.62
scalar Network.dyn_peer[313] 	lookupStabilitySig:mean 	0.39709267020226
scalar Network.dyn_peer[313] 	lookupHopsSig:mean 	15.4
scalar Network.dyn_peer[314] 	lookupTimeSig:mean 	3.54
scalar Network.dyn_peer[314] 	lookupStabilitySig:mean 	0.83698769491166
scalar Network.dyn_peer[314] 	lookupHopsSig:mean 	34.6
scalar Network.dyn_peer[315] 	lookupTimeSig:mean 	1.9142857142857
scalar Network.dyn_peer[315] 	lookupStabilitySig:mean 	0.72480152507446
scalar Network.dyn_peer[315] 	lookupHopsSig:mean 	18.285714285714
scalar Network.dyn_peer[316] 	lookupTimeSig:mean 	3.0333333333333
scalar Network.dyn_peer[316] 	lookupStabilitySig:mean 	0.48415375935535
scalar Network.dyn_peer[316] 	lookupHopsSig:mean 	29.666666666667
scalar Network.dyn_peer[317] 	lookupTimeSig:mean 	1.6538461538462
scalar Network.dyn_peer[317] 	lookupStabilitySig:mean 	0.9542953292481
scalar Network.dyn_peer[317] 	lookupHopsSig:mean 	15.615384615385
scalar Network.dyn_peer[318] 	lookupTimeSig:mean 	2.4571428571429
scalar Network.dyn_peer[318] 	lookupStabilitySig:mean 	0.91851798724383
scalar Network.dyn_peer[318] 	lookupHopsSig:mean 	23.714285714286
scalar Network.dyn_peer[319] 	lookupTimeSig:mean 	3.6333333333333
scalar Network.dyn_peer[319] 	lookupStabilitySig:mean 	0.75873965521653
scalar Network.dyn_peer[319] 	lookupHopsSig:mean 	35.666666666667
scalar Network.dyn_peer[320] 	lookupTimeSig:mean 	3.275
scalar Network.dyn_peer[320] 	lookupStabilitySig:mean 	0.83240529475734
scalar Network.dyn_peer[320] 	lookupHopsSig:mean 	32
scalar Network.dyn_peer[321] 	lookupTimeSig:mean 	1.775
scalar Network.dyn_peer[321] 	lookupStabilitySig:mean 	0.62977043353021
scalar Network.dyn_peer[321] 	lookupHopsSig:mean 	17
scalar Network.dyn_peer[322] 	lookupTimeSig:mean 	1.7
scalar Network.dyn_peer[322] 	lookupStabilitySig:mean 	0.9070089603109
scalar Network.dyn_peer[322] 	lookupHopsSig:mean 	16.142857142857
scalar Network.dyn_peer[323] 	lookupTimeSig:mean 	2.5111111111111
scalar Network.dyn_peer[323] 	lookupStabilitySig:mean 	0.88866764907208
scalar Network.dyn_peer[323] 	lookupHopsSig:mean 	24.222222222222
scalar Network.dyn_peer[324] 	lookupTimeSig:mean 	2.15
scalar Network.dyn_peer[324] 	lookupStabilitySig:mean 	0.36020736210048
scalar Network.dyn_peer[324] 	lookupHopsSig:mean 	20.75
scalar Network.dyn_peer[325] 	lookupTimeSig:mean 	1.7555555555556
scalar Network.dyn_peer[325] 	lookupStabilitySig:mean 	0.87846571507139
scalar Network.dyn_peer[325] 	lookupHopsSig:mean 	16.666666666667
scalar Network.dyn_peer[326] 	lookupTimeSig:mean 	3.025
scalar Network.dyn_peer[326] 	lookupStabilitySig:mean 	0.87756037106737
scalar Network.dyn_peer[326] 	lookupHopsSig:mean 	29.5
scalar Network.dyn_peer[327] 	lookupTimeSig:mean 	1.6
scalar Network.dyn_peer[327] 	lookupStabilitySig:mean 	0.64140945114195
scalar Network.dyn_peer[327] 	lookupHopsSig:mean 	15.125
scalar Network.dyn_peer[328] 	lookupTimeSig:mean 	1.9666666666667
scalar Network.dyn_peer[328] 	lookupStabilitySig:mean 	0.37063007553418
scalar Network.dyn_peer[328] 	lookupHopsSig:mean 	19
scalar Network.dyn_peer[329] 	lookupTimeSig:mean 	1.5428571428571
scalar Network.dyn_peer[329] 	lookupStabilitySig:mean 	0.83493926296277
scalar Network.dyn_peer[329] 	lookupHopsSig:mean 	14.571428571429
scalar Network.dyn_peer[330] 	lookupTimeSig:mean 	1.825
scalar Network.dyn_peer[330] 	lookupStabilitySig:mean 	0.74938508588821
scalar Network.dyn_peer[330] 	lookupHopsSig:mean 	17.5
scalar Network.dyn_peer[331] 	lookupTimeSig:mean 	1.42
scalar Network.dyn_peer[331] 	lookupStabilitySig:mean 	0.55147216394544
scalar Network.dyn_peer[331] 	lookupHopsSig:mean 	13.4
scalar Network.dyn_peer[332] 	lookupTimeSig:mean 	2.3923076923077
scalar Network.dyn_peer[332] 	lookupStabilitySig:mean 	0.96150420810311
scalar Network.dyn_peer[332] 	lookupHopsSig:mean 	23
scalar Network.dyn_peer[333] 	lookupTimeSig:mean 	5.1
scalar Network.dyn_peer[333] 	lookupStabilitySig:mean 	0.72800484672189
scalar Network.dyn_peer[333] 	lookupHopsSig:mean 	50.5
scalar Network.dyn_peer[334] 	lookupTimeSig:mean 	1.0666666666667
scalar Network.dyn_peer[334] 	lookupStabilitySig:mean 	0.71176447595159
scalar Network.dyn_peer[334] 	lookupHopsSig:mean 	9.8333333333333
scalar Network.dyn_peer[335] 	lookupTimeSig:mean 	1.2666666666667
scalar Network.dyn_peer[335] 	lookupStabilitySig:mean 	0.87768122874614
scalar Network.dyn_peer[335] 	lookupHopsSig:mean 	11.777777777778
scalar Network.dyn_peer[336] 	lookupTimeSig:mean 	3.2333333333333
scalar Network.dyn_peer[336] 	lookupStabilitySig:mean 	0.40685895457864
scalar Network.dyn_peer[336] 	lookupHopsSig:mean 	31.666666666667
scalar Network.dyn_peer[337] 	lookupTimeSig:mean 	2
scalar Network.dyn_peer[337] 	lookupStabilitySig:mean 	0.39290167577565
scalar Network.dyn_peer[337] 	lookupHopsSig:mean 	19.25
scalar Network.dyn_peer[338] 	lookupTimeSig:mean 	1.4545454545455
scalar Network.dyn_peer[338] 	lookupStabilitySig:mean 	0.8648562558334
scalar Network.dyn_peer[338] 	lookupHopsSig:mean 	13.636363636364
scalar Network.dyn_peer[339] 	lookupTimeSig:mean 	2.65
scalar Network.dyn_peer[339] 	lookupStabilitySig:mean 	0.37516007572412
scalar Network.dyn_peer[339] 	lookupHopsSig:mean 	26
scalar Network.dyn_peer[340] 	lookupTimeSig:mean 	1.25
scalar Network.dyn_peer[340] 	lookupStabilitySig:mean 	0.11789774894714
scalar Network.dyn_peer[340] 	lookupHopsSig:mean 	12
scalar Network.dyn_peer[341] 	lookupTimeSig:mean 	2.3333333333333
scalar Network.dyn_peer[341] 	lookupStabilitySig:mean 	0.94631809586038
scalar Network.dyn_peer[341] 	lookupHopsSig:mean 	22.416666666667
scalar Network.dyn_peer[342] 	lookupTimeSig:mean 	1.1888888888889
scalar Network.dyn_peer[342] 	lookupStabilitySig:mean 	0.75244382147988
scalar Network.dyn_peer[342] 	lookupHopsSig:mean 	11
scalar Network.dyn_peer[343] 	lookupTimeSig:mean 	3.7666666666667
scalar Network.dyn_peer[343] 	lookupStabilitySig:mean 	0.85873136979838
scalar Network.dyn_peer[343] 	lookupHopsSig:mean 	37
scalar Network.dyn_peer[344] 	lookupTimeSig:mean 	2.0375
scalar Network.dyn_peer[344] 	lookupStabilitySig:mean 	0.93497541444958
scalar Network.dyn_peer[344] 	lookupHopsSig:mean 	19.5
scalar Network.dyn_peer[345] 	lookupTimeSig:mean 	2.04
scalar Network.dyn_peer[345] 	lookupStabilitySig:mean 	0.76576683432795
scalar Network.dyn_peer[345] 	lookupHopsSig:mean 	19.5
scalar Network.dyn_peer[346] 	lookupTimeSig:mean 	1.1375
scalar Network.dyn_peer[346] 	lookupStabilitySig:mean 	0.8684153072536
scalar Network.dyn_peer[346] 	lookupHopsSig:mean 	10.5
scalar Network.dyn_peer[347] 	lookupTimeSig:mean 	2.1666666666667
scalar Network.dyn_peer[347] 	lookupStabilitySig:mean 	0.31521971027056
scalar Network.dyn_peer[347] 	lookupHopsSig:mean 	21
scalar Network.dyn_peer[348] 	lookupTimeSig:mean 	2.4333333333333
scalar Network.dyn_peer[348] 	lookupStabilitySig:mean 	0.81986030812065
scalar Network.dyn_peer[348] 	lookupHopsSig:mean 	23.666666666667
scalar Network.dyn_peer[349] 	lookupTimeSig:mean 	2.4666666666667
scalar Network.dyn_peer[349] 	lookupStabilitySig:mean 	0.85825923085213
scalar Network.dyn_peer[349] 	lookupHopsSig:mean 	23.833333333333
scalar Network.dyn_peer[350] 	lookupTimeSig:mean 	1.1833333333333
scalar Network.dyn_peer[350] 	lookupStabilitySig:mean 	0.55050442367792
scalar Network.dyn_peer[350] 	lookupHopsSig:mean 	11
scalar Network.dyn_peer[351] 	lookupTimeSig:mean 	1.38
scalar Network.dyn_peer[351] 	lookupStabilitySig:mean 	0.58457106724381
scalar Network.dyn_peer[351] 	lookupHopsSig:mean 	13
scalar Network.dyn_peer[352] 	lookupTimeSig:mean 	2.5
scalar Network.dyn_peer[352] 	lookupStabilitySig:mean 	0.76461054484493
scalar Network.dyn_peer[352] 	lookupHopsSig:mean 	24.142857142857
scalar Network.dyn_peer[353] 	lookupTimeSig:mean 	2.4
scalar Network.dyn_peer[353] 	lookupStabilitySig:mean 	0.86865955932687
scalar Network.dyn_peer[353] 	lookupHopsSig:mean 	23.166666666667
scalar Network.dyn_peer[354] 	lookupTimeSig:mean 	2.0166666666667
scalar Network.dyn_peer[354] 	lookupStabilitySig:mean 	0.81193505631139
scalar Network.dyn_peer[354] 	lookupHopsSig:mean 	19.333333333333
scalar Network.dyn_peer[355] 	lookupTimeSig:mean 	1.1909090909091
scalar Network.dyn_peer[355] 	lookupStabilitySig:mean 	0.92213993519545
scalar Network.dyn_peer[355] 	lookupHopsSig:mean 	11
scalar Network.dyn_peer[356] 	lookupTimeSig:mean 	1.25
scalar Network.dyn_peer[356] 	lookupStabilitySig:mean 	0.61234109662473
scalar Network.dyn_peer[356] 	lookupHopsSig:mean 	11.75
scalar Network.dyn_peer[357] 	lookupTimeSig:mean 	2.06
scalar Network.dyn_peer[357] 	lookupStabilitySig:mean 	0.72326047495008
scalar Network.dyn_peer[357] 	lookupHopsSig:mean 	19.8
scalar Network.dyn_peer[358] 	lookupTimeSig:mean 	1.75
scalar Network.dyn_peer[358] 	lookupStabilitySig:mean 	0.72309329360723
scalar Network.dyn_peer[358] 	lookupHopsSig:mean 	16.75
scalar Network.dyn_peer[359] 	lookupTimeSig:mean 	2.0111111111111
scalar Network.dyn_peer[359] 	lookupStabilitySig:mean 	0.96016431690401
scalar Network.dyn_peer[359] 	lookupHopsSig:mean 	19.222222222222
scalar Network.dyn_peer[360] 	lookupTimeSig:mean 	1.94
scalar Network.dyn_peer[360] 	lookupStabilitySig:mean 	0.44311731569469
scalar Network.dyn_peer[360] 	lookupHopsSig:mean 	18.6
scalar Network.dyn_peer[361] 	lookupTimeSig:mean 	1.84
scalar Network.dyn_peer[361] 	lookupStabilitySig:mean 	0.80152826458216
scalar Network.dyn_peer[361] 	lookupHopsSig:mean 	17.6
scalar Network.dyn_peer[362] 	lookupTimeSig:mean 	1.5222222222222
scalar Network.dyn_peer[362] 	lookupStabilitySig:mean 	0.76876766441597
scalar Network.dyn_peer[362] 	lookupHopsSig:mean 	14.333333333333
scalar Network.dyn_peer[363] 	lookupTimeSig:mean 	1.3909090909091
scalar Network.dyn_peer[363] 	lookupStabilitySig:mean 	0.88925844172693
scalar Network.dyn_peer[363] 	lookupHopsSig:mean 	13
scalar Network.dyn_peer[364] 	lookupTimeSig:mean 	1.25
scalar Network.dyn_peer[364] 	lookupStabilitySig:mean 	0.33336796984076
scalar Network.dyn_peer[364] 	lookupHopsSig:mean 	11.75
scalar Network.dyn_peer[365] 	lookupTimeSig:mean 	2.2333333333333
scalar Network.dyn_peer[365] 	lookupStabilitySig:mean 	0.40937976414959
scalar Network.dyn_peer[365] 	lookupHopsSig:mean 	21.666666666667
scalar Network.dyn_peer[366] 	lookupTimeSig:mean 	2.52
scalar Network.dyn_peer[366] 	lookupStabilitySig:mean 	0.79431162606925
scalar Network.dyn_peer[366] 	lookupHopsSig:mean 	24.4
scalar Network.dyn_peer[367] 	lookupTimeSig:mean 	1.9615384615385
scalar Network.dyn_peer[367] 	lookupStabilitySig:mean 	0.90338204908543
scalar Network.dyn_peer[367] 	lookupHopsSig:mean 	18.692307692308
scalar Network.dyn_peer[368] 	lookupTimeSig:mean 	1.5666666666667
scalar Network.dyn_peer[368] 	lookupStabilitySig:mean 	0.870009953777
scalar Network.dyn_peer[368] 	lookupHopsSig:mean 	14.777777777778
scalar Network.dyn_peer[369] 	lookupTimeSig:mean 	2.4
scalar Network.dyn_peer[369] 	lookupStabilitySig:mean 	0.69146770760417
scalar Network.dyn_peer[369] 	lookupHopsSig:mean 	23.2
scalar Network.dyn_peer[370] 	lookupTimeSig:mean 	1.65
scalar Network.dyn_peer[370] 	lookupStabilitySig:mean 	0.18012425303459
scalar Network.dyn_peer[370] 	lookupHopsSig:mean 	16
scalar Network.dyn_peer[371] 	lookupTimeSig:mean 	2.0666666666667
scalar Network.dyn_peer[371] 	lookupStabilitySig:mean 	0.96464061030808
scalar Network.dyn_peer[371] 	lookupHopsSig:mean 	19.75
scalar Network.dyn_peer[372] 	lookupTimeSig:mean 	1.6571428571429
scalar Network.dyn_peer[372] 	lookupStabilitySig:mean 	0.73626421125872
scalar Network.dyn_peer[372] 	lookupHopsSig:mean 	15.714285714286
scalar Network.dyn_peer[373] 	lookupTimeSig:mean 	2.0428571428571
scalar Network.dyn_peer[373] 	lookupStabilitySig:mean 	0.94505527781855
scalar Network.dyn_peer[373] 	lookupHopsSig:mean 	19.5
scalar Network.dyn_peer[374] 	lookupTimeSig:mean 	2.0833333333333
scalar Network.dyn_peer[374] 	lookupStabilitySig:mean 	0.68597806990147
scalar Network.dyn_peer[374] 	lookupHopsSig:mean 	20
scalar Network.dyn_peer[375] 	lookupTimeSig:mean 	2.5285714285714
scalar Network.dyn_peer[375] 	lookupStabilitySig:mean 	0.91680736467242
scalar Network.dyn_peer[375] 	lookupHopsSig:mean 	24.428571428571
scalar Network.dyn_peer[376] 	lookupTimeSig:mean 	2.925
scalar Network.dyn_peer[376] 	lookupStabilitySig:mean 	0.85158495372161
scalar Network.dyn_peer[376] 	lookupHopsSig:mean 	28.5
scalar Network.dyn_peer[377] 	lookupTimeSig:mean 	2.8
scalar Network.dyn_peer[377] 	lookupStabilitySig:mean 	0.70076277107
scalar Network.dyn_peer[377] 	lookupHopsSig:mean 	27.333333333333
scalar Network.dyn_peer[378] 	lookupTimeSig:mean 	2.6571428571429
scalar Network.dyn_peer[378] 	lookupStabilitySig:mean 	0.94187230497066
scalar Network.dyn_peer[378] 	lookupHopsSig:mean 	25.714285714286
scalar Network.dyn_peer[379] 	lookupTimeSig:mean 	1.2
scalar Network.dyn_peer[379] 	lookupStabilitySig:mean 	0.66650458611548
scalar Network.dyn_peer[379] 	lookupHopsSig:mean 	11.166666666667
scalar Network.dyn_peer[380] 	lookupTimeSig:mean 	1.5666666666667
scalar Network.dyn_peer[380] 	lookupStabilitySig:mean 	0.61132863039772
scalar Network.dyn_peer[380] 	lookupHopsSig:mean 	14.833333333333
scalar Network.dyn_peer[381] 	lookupTimeSig:mean 	2.3
scalar Network.dyn_peer[381] 	lookupStabilitySig:mean 	0.94152162130922
scalar Network.dyn_peer[381] 	lookupHopsSig:mean 	22.125
scalar Network.dyn_peer[382] 	lookupTimeSig:mean 	2.625
scalar Network.dyn_peer[382] 	lookupStabilitySig:mean 	0.79883975442499
scalar Network.dyn_peer[382] 	lookupHopsSig:mean 	25.5
scalar Network.dyn_peer[383] 	lookupTimeSig:mean 	3.275
scalar Network.dyn_peer[383] 	lookupStabilitySig:mean 	0.69950904231519
scalar Network.dyn_peer[383] 	lookupHopsSig:mean 	32
scalar Network.dyn_peer[384] 	lookupTimeSig:mean 	2.4333333333333
scalar Network.dyn_peer[384] 	lookupStabilitySig:mean 	0.8754308304439
scalar Network.dyn_peer[384] 	lookupHopsSig:mean 	23.5
scalar Network.dyn_peer[385] 	lookupTimeSig:mean 	2.2375
scalar Network.dyn_peer[385] 	lookupStabilitySig:mean 	0.86329617304727
scalar Network.dyn_peer[385] 	lookupHopsSig:mean 	21.5
scalar Network.dyn_peer[386] 	lookupTimeSig:mean 	2.08
scalar Network.dyn_peer[386] 	lookupStabilitySig:mean 	0.45870275385678
scalar Network.dyn_peer[386] 	lookupHopsSig:mean 	20
scalar Network.dyn_peer[387] 	lookupTimeSig:mean 	1.9714285714286
scalar Network.dyn_peer[387] 	lookupStabilitySig:mean 	0.90203517954797
scalar Network.dyn_peer[387] 	lookupHopsSig:mean 	18.857142857143
scalar Network.dyn_peer[388] 	lookupTimeSig:mean 	1.0666666666667
scalar Network.dyn_peer[388] 	lookupStabilitySig:mean 	0.28372093041738
scalar Network.dyn_peer[388] 	lookupHopsSig:mean 	10
scalar Network.dyn_peer[389] 	lookupTimeSig:mean 	1.025
scalar Network.dyn_peer[389] 	lookupStabilitySig:mean 	0.77856381097808
scalar Network.dyn_peer[389] 	lookupHopsSig:mean 	9.5
scalar Network.dyn_peer[390] 	lookupTimeSig:mean 	1.52
scalar Network.dyn_peer[390] 	lookupStabilitySig:mean 	0.4149536266923
scalar Network.dyn_peer[390] 	lookupHopsSig:mean 	14.4
scalar Network.dyn_peer[391] 	lookupTimeSig:mean 	2.8333333333333
scalar Network.dyn_peer[391] 	lookupStabilitySig:mean 	0.6820543470482
scalar Network.dyn_peer[391] 	lookupHopsSig:mean 	27.666666666667
scalar Network.dyn_peer[392] 	lookupTimeSig:mean 	4
scalar Network.dyn_peer[392] 	lookupStabilitySig:mean 	0.5549256131053
scalar Network.dyn_peer[392] 	lookupHopsSig:mean 	39.5
scalar Network.dyn_peer[393] 	lookupTimeSig:mean 	1.15
scalar Network.dyn_peer[393] 	lookupStabilitySig:mean 	0.014492779970169
scalar Network.dyn_peer[393] 	lookupHopsSig:mean 	11
scalar Network.dyn_peer[394] 	lookupTimeSig:mean 	2.4
scalar Network.dyn_peer[394] 	lookupStabilitySig:mean 	0.91929614559437
scalar Network.dyn_peer[394] 	lookupHopsSig:mean 	23.166666666667
scalar Network.dyn_peer[395] 	lookupTimeSig:mean 	2.225
scalar Network.dyn_peer[395] 	lookupStabilitySig:mean 	0.60791551880538
scalar Network.dyn_peer[395] 	lookupHopsSig:mean 	21.5
scalar Network.dyn_peer[396] 	lookupTimeSig:mean 	2.8
scalar Network.dyn_peer[396] 	lookupStabilitySig:mean 	0.90513533214107
scalar Network.dyn_peer[396] 	lookupHopsSig:mean 	27.25
scalar Network.dyn_peer[397] 	lookupTimeSig:mean 	2.375
scalar Network.dyn_peer[397] 	lookupStabilitySig:mean 	0.56090447679162
scalar Network.dyn_peer[397] 	lookupHopsSig:mean 	23
scalar Network.dyn_peer[398] 	lookupTimeSig:mean 	1.6
scalar Network.dyn_peer[398] 	lookupStabilitySig:mean 	0.58042553882115
scalar Network.dyn_peer[398] 	lookupHopsSig:mean 	15.25
scalar Network.dyn_peer[399] 	lookupTimeSig:mean 	5.2
scalar Network.dyn_peer[399] 	lookupStabilitySig:mean 	0.84828796734413
scalar Network.dyn_peer[399] 	lookupHopsSig:mean 	51.333333333333
scalar Network.dyn_peer[400] 	lookupTimeSig:mean 	2.5
scalar Network.dyn_peer[400] 	lookupStabilitySig:mean 	0.59147551190108
scalar Network.dyn_peer[400] 	lookupHopsSig:mean 	24.25
scalar Network.dyn_peer[401] 	lookupTimeSig:mean 	2.2125
scalar Network.dyn_peer[401] 	lookupStabilitySig:mean 	0.9283992164419
scalar Network.dyn_peer[401] 	lookupHopsSig:mean 	21.25
scalar Network.dyn_peer[402] 	lookupTimeSig:mean 	1.7833333333333
scalar Network.dyn_peer[402] 	lookupStabilitySig:mean 	0.62943563237786
scalar Network.dyn_peer[402] 	lookupHopsSig:mean 	17
scalar Network.dyn_peer[403] 	lookupTimeSig:mean 	1.3333333333333
scalar Network.dyn_peer[403] 	lookupStabilitySig:mean 	0.66646208024273
scalar Network.dyn_peer[403] 	lookupHopsSig:mean 	12.5
scalar Network.dyn_peer[404] 	lookupTimeSig:mean 	1.93
scalar Network.dyn_peer[404] 	lookupStabilitySig:mean 	0.94477044062223
scalar Network.dyn_peer[404] 	lookupHopsSig:mean 	18.4
scalar Network.dyn_peer[405] 	lookupTimeSig:mean 	1.6333333333333
scalar Network.dyn_peer[405] 	lookupStabilitySig:mean 	0.29223205645879
scalar Network.dyn_peer[405] 	lookupHopsSig:mean 	15.666666666667
scalar Network.dyn_peer[406] 	lookupTimeSig:mean 	2.8333333333333
scalar Network.dyn_peer[406] 	lookupStabilitySig:mean 	0.73427347093821
scalar Network.dyn_peer[406] 	lookupHopsSig:mean 	27.666666666667
scalar Network.dyn_peer[407] 	lookupTimeSig:mean 	2.425
scalar Network.dyn_peer[407] 	lookupStabilitySig:mean 	0.9097464508377
scalar Network.dyn_peer[407] 	lookupHopsSig:mean 	23.5
scalar Network.dyn_peer[408] 	lookupTimeSig:mean 	2.5571428571429
scalar Network.dyn_peer[408] 	lookupStabilitySig:mean 	0.94862767282341
scalar Network.dyn_peer[408] 	lookupHopsSig:mean 	24.714285714286
scalar Network.dyn_peer[409] 	lookupTimeSig:mean 	1.55
scalar Network.dyn_peer[409] 	lookupStabilitySig:mean 	0.36251068953425
scalar Network.dyn_peer[409] 	lookupHopsSig:mean 	14.75
scalar Network.dyn_peer[410] 	lookupTimeSig:mean 	1.6142857142857
scalar Network.dyn_peer[410] 	lookupStabilitySig:mean 	0.58639968818586
scalar Network.dyn_peer[410] 	lookupHopsSig:mean 	15.285714285714
scalar Network.dyn_peer[411] 	lookupTimeSig:mean 	4.5
scalar Network.dyn_peer[411] 	lookupStabilitySig:mean 	0.65699558705091
scalar Network.dyn_peer[411] 	lookupHopsSig:mean 	44.5
scalar Network.dyn_peer[412] 	lookupTimeSig:mean 	2.85
scalar Network.dyn_peer[412] 	lookupStabilitySig:mean 	0.94139912375249
scalar Network.dyn_peer[412] 	lookupHopsSig:mean 	27.666666666667
scalar Network.dyn_peer[413] 	lookupTimeSig:mean 	2.4666666666667
scalar Network.dyn_peer[413] 	lookupStabilitySig:mean 	0.6574247777462
scalar Network.dyn_peer[413] 	lookupHopsSig:mean 	24
scalar Network.dyn_peer[414] 	lookupTimeSig:mean 	2.3666666666667
scalar Network.dyn_peer[414] 	lookupStabilitySig:mean 	0.48303962498903
scalar Network.dyn_peer[414] 	lookupHopsSig:mean 	23
scalar Network.dyn_peer[415] 	lookupTimeSig:mean 	1.3857142857143
scalar Network.dyn_peer[415] 	lookupStabilitySig:mean 	0.92784395640982
scalar Network.dyn_peer[415] 	lookupHopsSig:mean 	13
scalar Network.dyn_peer[416] 	lookupTimeSig:mean 	1.45
scalar Network.dyn_peer[416] 	lookupStabilitySig:mean 	0.8543787074741
scalar Network.dyn_peer[416] 	lookupHopsSig:mean 	13.625
scalar Network.dyn_peer[417] 	lookupTimeSig:mean 	2.475
scalar Network.dyn_peer[417] 	lookupStabilitySig:mean 	0.53565407497808
scalar Network.dyn_peer[417] 	lookupHopsSig:mean 	24
scalar Network.dyn_peer[418] 	lookupTimeSig:mean 	3.1166666666667
scalar Network.dyn_peer[418] 	lookupStabilitySig:mean 	0.94490603885303
scalar Network.dyn_peer[418] 	lookupHopsSig:mean 	30.333333333333
scalar Network.dyn_peer[419] 	lookupTimeSig:mean 	3.65
scalar Network.dyn_peer[419] 	lookupStabilitySig:mean 	0.26815365999937
scalar Network.dyn_peer[419] 	lookupHopsSig:mean 	36
scalar Network.dyn_peer[420] 	lookupTimeSig:mean 	1.7428571428571
[...]
scalar Network.dyn_peer[895] 	lookupStabilitySig:mean 	0.70615033308665
scalar Network.dyn_peer[895] 	lookupHopsSig:mean 	25.666666666667
scalar Network.dyn_peer[896] 	lookupTimeSig:mean 	1.9833333333333
scalar Network.dyn_peer[896] 	lookupStabilitySig:mean 	0.91806405658523
scalar Network.dyn_peer[896] 	lookupHopsSig:mean 	19
scalar Network.dyn_peer[897] 	lookupTimeSig:mean 	1.4
scalar Network.dyn_peer[897] 	lookupStabilitySig:mean 	0.47922168672085
scalar Network.dyn_peer[897] 	lookupHopsSig:mean 	13.333333333333
scalar Network.dyn_peer[898] 	lookupTimeSig:mean 	2.56
scalar Network.dyn_peer[898] 	lookupStabilitySig:mean 	0.82205885760486
scalar Network.dyn_peer[898] 	lookupHopsSig:mean 	24.8
scalar Network.dyn_peer[899] 	lookupTimeSig:mean 	1.6909090909091
scalar Network.dyn_peer[899] 	lookupStabilitySig:mean 	0.90780990418385
scalar Network.dyn_peer[899] 	lookupHopsSig:mean 	16
scalar Network.dyn_peer[900] 	lookupTimeSig:mean 	1.5
scalar Network.dyn_peer[900] 	lookupStabilitySig:mean 	0.73292755832275
scalar Network.dyn_peer[900] 	lookupHopsSig:mean 	14.333333333333
scalar Network.dyn_peer[901] 	lookupTimeSig:mean 	1.8833333333333
scalar Network.dyn_peer[901] 	lookupStabilitySig:mean 	0.90109031453418
scalar Network.dyn_peer[901] 	lookupHopsSig:mean 	18
scalar Network.dyn_peer[902] 	lookupTimeSig:mean 	1.625
scalar Network.dyn_peer[902] 	lookupStabilitySig:mean 	0.86455105734058
scalar Network.dyn_peer[902] 	lookupHopsSig:mean 	15.375
scalar Network.dyn_peer[903] 	lookupTimeSig:mean 	2.85
scalar Network.dyn_peer[903] 	lookupStabilitySig:mean 	0.91624976601452
scalar Network.dyn_peer[903] 	lookupHopsSig:mean 	27.75
scalar Network.dyn_peer[904] 	lookupTimeSig:mean 	2.6666666666667
scalar Network.dyn_peer[904] 	lookupStabilitySig:mean 	0.72701637198528
scalar Network.dyn_peer[904] 	lookupHopsSig:mean 	26
scalar Network.dyn_peer[905] 	lookupTimeSig:mean 	3.6333333333333
scalar Network.dyn_peer[905] 	lookupStabilitySig:mean 	0.77830219020446
scalar Network.dyn_peer[905] 	lookupHopsSig:mean 	35.666666666667
scalar Network.dyn_peer[906] 	lookupTimeSig:mean 	1.2333333333333
scalar Network.dyn_peer[906] 	lookupStabilitySig:mean 	0.888756852597
scalar Network.dyn_peer[906] 	lookupHopsSig:mean 	11.5
scalar Network.dyn_peer[907] 	lookupTimeSig:mean 	1.8333333333333
scalar Network.dyn_peer[907] 	lookupStabilitySig:mean 	0.88301996265848
scalar Network.dyn_peer[907] 	lookupHopsSig:mean 	17.5
scalar Network.dyn_peer[908] 	lookupTimeSig:mean 	1.6875
scalar Network.dyn_peer[908] 	lookupStabilitySig:mean 	0.85026718897279
scalar Network.dyn_peer[908] 	lookupHopsSig:mean 	16
scalar Network.dyn_peer[909] 	lookupTimeSig:mean 	1.9166666666667
scalar Network.dyn_peer[909] 	lookupStabilitySig:mean 	0.85746439111729
scalar Network.dyn_peer[909] 	lookupHopsSig:mean 	18.25
scalar Network.dyn_peer[910] 	lookupTimeSig:mean 	2.17
scalar Network.dyn_peer[910] 	lookupStabilitySig:mean 	0.96175127555616
scalar Network.dyn_peer[910] 	lookupHopsSig:mean 	20.8
scalar Network.dyn_peer[911] 	lookupTimeSig:mean 	2.3
scalar Network.dyn_peer[911] 	lookupStabilitySig:mean 	0.94240383857063
scalar Network.dyn_peer[911] 	lookupHopsSig:mean 	22.142857142857
scalar Network.dyn_peer[912] 	lookupTimeSig:mean 	2.5
scalar Network.dyn_peer[912] 	lookupStabilitySig:mean 	0.86301323398948
scalar Network.dyn_peer[912] 	lookupHopsSig:mean 	24.333333333333
scalar Network.dyn_peer[913] 	lookupTimeSig:mean 	2.88
scalar Network.dyn_peer[913] 	lookupStabilitySig:mean 	0.9205708373338
scalar Network.dyn_peer[913] 	lookupHopsSig:mean 	28
scalar Network.dyn_peer[914] 	lookupTimeSig:mean 	2.5
scalar Network.dyn_peer[914] 	lookupStabilitySig:mean 	0.72672917647287
scalar Network.dyn_peer[914] 	lookupHopsSig:mean 	24.25
scalar Network.dyn_peer[915] 	lookupTimeSig:mean 	2.1
scalar Network.dyn_peer[915] 	lookupStabilitySig:mean 	0.82122470897489
scalar Network.dyn_peer[915] 	lookupHopsSig:mean 	20.142857142857
scalar Network.dyn_peer[916] 	lookupTimeSig:mean 	1.6
scalar Network.dyn_peer[916] 	lookupStabilitySig:mean 	0.8837439964215
scalar Network.dyn_peer[916] 	lookupHopsSig:mean 	15.111111111111
scalar Network.dyn_peer[917] 	lookupTimeSig:mean 	1.26
scalar Network.dyn_peer[917] 	lookupStabilitySig:mean 	0.8286059204489
scalar Network.dyn_peer[917] 	lookupHopsSig:mean 	11.8
scalar Network.dyn_peer[918] 	lookupTimeSig:mean 	1.2769230769231
scalar Network.dyn_peer[918] 	lookupStabilitySig:mean 	0.94939091808807
scalar Network.dyn_peer[918] 	lookupHopsSig:mean 	11.846153846154
scalar Network.dyn_peer[919] 	lookupTimeSig:mean 	1.7
scalar Network.dyn_peer[919] 	lookupStabilitySig:mean 	0.58333333581686
scalar Network.dyn_peer[919] 	lookupHopsSig:mean 	16.5
scalar Network.dyn_peer[920] 	lookupTimeSig:mean 	1.5333333333333
scalar Network.dyn_peer[920] 	lookupStabilitySig:mean 	0.90884204643468
scalar Network.dyn_peer[920] 	lookupHopsSig:mean 	14.444444444444
scalar Network.dyn_peer[921] 	lookupTimeSig:mean 	1.96
scalar Network.dyn_peer[921] 	lookupStabilitySig:mean 	0.84719695709646
scalar Network.dyn_peer[921] 	lookupHopsSig:mean 	18.8
scalar Network.dyn_peer[922] 	lookupTimeSig:mean 	1.32
scalar Network.dyn_peer[922] 	lookupStabilitySig:mean 	0.72351508997381
scalar Network.dyn_peer[922] 	lookupHopsSig:mean 	12.4
scalar Network.dyn_peer[923] 	lookupTimeSig:mean 	2.3
scalar Network.dyn_peer[923] 	lookupStabilitySig:mean 	0.87574190087616
scalar Network.dyn_peer[923] 	lookupHopsSig:mean 	22.2
scalar Network.dyn_peer[924] 	lookupTimeSig:mean 	3.525
scalar Network.dyn_peer[924] 	lookupStabilitySig:mean 	0.88737815292552
scalar Network.dyn_peer[924] 	lookupHopsSig:mean 	34.5
scalar Network.dyn_peer[925] 	lookupTimeSig:mean 	2.28
scalar Network.dyn_peer[925] 	lookupStabilitySig:mean 	0.87821403257549
scalar Network.dyn_peer[925] 	lookupHopsSig:mean 	22
scalar Network.dyn_peer[926] 	lookupTimeSig:mean 	1.84
scalar Network.dyn_peer[926] 	lookupStabilitySig:mean 	0.85108609544113
scalar Network.dyn_peer[926] 	lookupHopsSig:mean 	17.5
scalar Network.dyn_peer[927] 	lookupTimeSig:mean 	2.9333333333333
scalar Network.dyn_peer[927] 	lookupStabilitySig:mean 	0.90333363010238
scalar Network.dyn_peer[927] 	lookupHopsSig:mean 	28.5
scalar Network.dyn_peer[928] 	lookupTimeSig:mean 	1.15
scalar Network.dyn_peer[928] 	lookupStabilitySig:mean 	0.65861355264982
scalar Network.dyn_peer[928] 	lookupHopsSig:mean 	10.666666666667
scalar Network.dyn_peer[929] 	lookupTimeSig:mean 	1.925
scalar Network.dyn_peer[929] 	lookupStabilitySig:mean 	0.86697682749946
scalar Network.dyn_peer[929] 	lookupHopsSig:mean 	18.375
scalar Network.dyn_peer[930] 	lookupTimeSig:mean 	2.05
scalar Network.dyn_peer[930] 	lookupStabilitySig:mean 	0.8704875089849
scalar Network.dyn_peer[930] 	lookupHopsSig:mean 	19.666666666667
scalar Network.dyn_peer[931] 	lookupTimeSig:mean 	1.4714285714286
scalar Network.dyn_peer[931] 	lookupStabilitySig:mean 	0.95703186307635
scalar Network.dyn_peer[931] 	lookupHopsSig:mean 	13.785714285714
scalar Network.dyn_peer[932] 	lookupTimeSig:mean 	1.5333333333333
scalar Network.dyn_peer[932] 	lookupStabilitySig:mean 	0.93025446372728
scalar Network.dyn_peer[932] 	lookupHopsSig:mean 	14.416666666667
scalar Network.dyn_peer[933] 	lookupTimeSig:mean 	2.1625
scalar Network.dyn_peer[933] 	lookupStabilitySig:mean 	0.89304199256003
scalar Network.dyn_peer[933] 	lookupHopsSig:mean 	20.75
scalar Network.dyn_peer[934] 	lookupTimeSig:mean 	1.4666666666667
scalar Network.dyn_peer[934] 	lookupStabilitySig:mean 	0.54380342115959
scalar Network.dyn_peer[934] 	lookupHopsSig:mean 	14
scalar Network.dyn_peer[935] 	lookupTimeSig:mean 	1.5692307692308
scalar Network.dyn_peer[935] 	lookupStabilitySig:mean 	0.9426929706421
scalar Network.dyn_peer[935] 	lookupHopsSig:mean 	14.769230769231
scalar Network.dyn_peer[936] 	lookupTimeSig:mean 	2.2714285714286
scalar Network.dyn_peer[936] 	lookupStabilitySig:mean 	0.90345308839876
scalar Network.dyn_peer[936] 	lookupHopsSig:mean 	21.857142857143
scalar Network.dyn_peer[937] 	lookupTimeSig:mean 	2.1666666666667
scalar Network.dyn_peer[937] 	lookupStabilitySig:mean 	0.9214213709347
scalar Network.dyn_peer[937] 	lookupHopsSig:mean 	20.833333333333
scalar Network.dyn_peer[938] 	lookupTimeSig:mean 	1.35
scalar Network.dyn_peer[938] 	lookupStabilitySig:mean 	0.95962770411279
scalar Network.dyn_peer[938] 	lookupHopsSig:mean 	12.6
scalar Network.dyn_peer[939] 	lookupTimeSig:mean 	1.6285714285714
scalar Network.dyn_peer[939] 	lookupStabilitySig:mean 	0.79600267616167
scalar Network.dyn_peer[939] 	lookupHopsSig:mean 	15.428571428571
scalar Network.dyn_peer[940] 	lookupTimeSig:mean 	3.7
scalar Network.dyn_peer[940] 	lookupStabilitySig:mean 	0.858356953909
scalar Network.dyn_peer[940] 	lookupHopsSig:mean 	36.333333333333
scalar Network.dyn_peer[941] 	lookupTimeSig:mean 	2.825
scalar Network.dyn_peer[941] 	lookupStabilitySig:mean 	0.90747049218044
scalar Network.dyn_peer[941] 	lookupHopsSig:mean 	27.5
scalar Network.dyn_peer[942] 	lookupTimeSig:mean 	1.7
scalar Network.dyn_peer[942] 	lookupStabilitySig:mean 	0.90054776466319
scalar Network.dyn_peer[942] 	lookupHopsSig:mean 	16.142857142857
scalar Network.dyn_peer[943] 	lookupTimeSig:mean 	1.0142857142857
scalar Network.dyn_peer[943] 	lookupStabilitySig:mean 	0.86229147309703
scalar Network.dyn_peer[943] 	lookupHopsSig:mean 	9.2857142857143
scalar Network.dyn_peer[944] 	lookupTimeSig:mean 	2.74
scalar Network.dyn_peer[944] 	lookupStabilitySig:mean 	0.83007176667452
scalar Network.dyn_peer[944] 	lookupHopsSig:mean 	26.6
scalar Network.dyn_peer[945] 	lookupTimeSig:mean 	1.54
scalar Network.dyn_peer[945] 	lookupStabilitySig:mean 	0.71935554295778
scalar Network.dyn_peer[945] 	lookupHopsSig:mean 	14.6
scalar Network.dyn_peer[946] 	lookupTimeSig:mean 	2.3333333333333
scalar Network.dyn_peer[946] 	lookupStabilitySig:mean 	0.90722245971362
scalar Network.dyn_peer[946] 	lookupHopsSig:mean 	22.5
scalar Network.dyn_peer[947] 	lookupTimeSig:mean 	1
scalar Network.dyn_peer[947] 	lookupStabilitySig:mean 	0.66442519426346
scalar Network.dyn_peer[947] 	lookupHopsSig:mean 	9.1666666666667
scalar Network.dyn_peer[948] 	lookupTimeSig:mean 	1.1666666666667
scalar Network.dyn_peer[948] 	lookupStabilitySig:mean 	0.77084298509484
scalar Network.dyn_peer[948] 	lookupHopsSig:mean 	10.833333333333
scalar Network.dyn_peer[949] 	lookupTimeSig:mean 	2.3
scalar Network.dyn_peer[949] 	lookupStabilitySig:mean 	0.44527990619342
scalar Network.dyn_peer[949] 	lookupHopsSig:mean 	22.333333333333
scalar Network.dyn_peer[950] 	lookupTimeSig:mean 	2.0444444444444
scalar Network.dyn_peer[950] 	lookupStabilitySig:mean 	0.95654233933116
scalar Network.dyn_peer[950] 	lookupHopsSig:mean 	19.555555555556
scalar Network.dyn_peer[951] 	lookupTimeSig:mean 	1.5333333333333
scalar Network.dyn_peer[951] 	lookupStabilitySig:mean 	0.77487637009472
scalar Network.dyn_peer[951] 	lookupHopsSig:mean 	14.444444444444
scalar Network.dyn_peer[952] 	lookupTimeSig:mean 	2.0285714285714
scalar Network.dyn_peer[952] 	lookupStabilitySig:mean 	0.88148583834326
scalar Network.dyn_peer[952] 	lookupHopsSig:mean 	19.428571428571
scalar Network.dyn_peer[953] 	lookupTimeSig:mean 	2.9571428571429
scalar Network.dyn_peer[953] 	lookupStabilitySig:mean 	0.92584314583136
scalar Network.dyn_peer[953] 	lookupHopsSig:mean 	28.714285714286
scalar Network.dyn_peer[954] 	lookupTimeSig:mean 	1.1166666666667
scalar Network.dyn_peer[954] 	lookupStabilitySig:mean 	0.73785780866941
scalar Network.dyn_peer[954] 	lookupHopsSig:mean 	10.333333333333
scalar Network.dyn_peer[955] 	lookupTimeSig:mean 	0.925
scalar Network.dyn_peer[955] 	lookupStabilitySig:mean 	0.70112613216043
scalar Network.dyn_peer[955] 	lookupHopsSig:mean 	8.5
scalar Network.dyn_peer[956] 	lookupTimeSig:mean 	2.3142857142857
scalar Network.dyn_peer[956] 	lookupStabilitySig:mean 	0.93868741233434
scalar Network.dyn_peer[956] 	lookupHopsSig:mean 	22.285714285714
scalar Network.dyn_peer[957] 	lookupTimeSig:mean 	4.3
scalar Network.dyn_peer[957] 	lookupStabilitySig:mean 	0.67754721641541
scalar Network.dyn_peer[957] 	lookupHopsSig:mean 	42.5
scalar Network.dyn_peer[958] 	lookupTimeSig:mean 	2.275
scalar Network.dyn_peer[958] 	lookupStabilitySig:mean 	0.86138059268706
scalar Network.dyn_peer[958] 	lookupHopsSig:mean 	22
scalar Network.dyn_peer[959] 	lookupTimeSig:mean 	2.175
scalar Network.dyn_peer[959] 	lookupStabilitySig:mean 	0.84970602812245
scalar Network.dyn_peer[959] 	lookupHopsSig:mean 	21
scalar Network.dyn_peer[960] 	lookupTimeSig:mean 	2.2666666666667
scalar Network.dyn_peer[960] 	lookupStabilitySig:mean 	0.8024318292737
scalar Network.dyn_peer[960] 	lookupHopsSig:mean 	22
scalar Network.dyn_peer[961] 	lookupTimeSig:mean 	1.9666666666667
scalar Network.dyn_peer[961] 	lookupStabilitySig:mean 	0.79964037529296
scalar Network.dyn_peer[961] 	lookupHopsSig:mean 	18.777777777778
scalar Network.dyn_peer[962] 	lookupTimeSig:mean 	1.625
scalar Network.dyn_peer[962] 	lookupStabilitySig:mean 	0.933893219335
scalar Network.dyn_peer[962] 	lookupHopsSig:mean 	15.375
scalar Network.dyn_peer[963] 	lookupTimeSig:mean 	2.35
scalar Network.dyn_peer[963] 	lookupStabilitySig:mean 	0.63173873489723
scalar Network.dyn_peer[963] 	lookupHopsSig:mean 	22.75
scalar Network.dyn_peer[964] 	lookupTimeSig:mean 	2.62
scalar Network.dyn_peer[964] 	lookupStabilitySig:mean 	0.84470681510866
scalar Network.dyn_peer[964] 	lookupHopsSig:mean 	25.4
scalar Network.dyn_peer[965] 	lookupTimeSig:mean 	2.5
scalar Network.dyn_peer[965] 	lookupStabilitySig:mean 	0.6234335899353
scalar Network.dyn_peer[965] 	lookupHopsSig:mean 	24.5
scalar Network.dyn_peer[966] 	lookupTimeSig:mean 	1.4
scalar Network.dyn_peer[966] 	lookupStabilitySig:mean 	0.90981866978109
scalar Network.dyn_peer[966] 	lookupHopsSig:mean 	13.125
scalar Network.dyn_peer[967] 	lookupTimeSig:mean 	1.85
scalar Network.dyn_peer[967] 	lookupStabilitySig:mean 	0.64781429246068
scalar Network.dyn_peer[967] 	lookupHopsSig:mean 	17.75
scalar Network.dyn_peer[968] 	lookupTimeSig:mean 	2.3
scalar Network.dyn_peer[968] 	lookupStabilitySig:mean 	0.71258537471294
scalar Network.dyn_peer[968] 	lookupHopsSig:mean 	22.333333333333
scalar Network.dyn_peer[969] 	lookupTimeSig:mean 	2.5666666666667
scalar Network.dyn_peer[969] 	lookupStabilitySig:mean 	0.78192017972469
scalar Network.dyn_peer[969] 	lookupHopsSig:mean 	25
scalar Network.dyn_peer[970] 	lookupTimeSig:mean 	1.5666666666667
scalar Network.dyn_peer[970] 	lookupStabilitySig:mean 	0.89116696485629
scalar Network.dyn_peer[970] 	lookupHopsSig:mean 	14.833333333333
scalar Network.dyn_peer[971] 	lookupTimeSig:mean 	1.8090909090909
scalar Network.dyn_peer[971] 	lookupStabilitySig:mean 	0.94875978155654
scalar Network.dyn_peer[971] 	lookupHopsSig:mean 	17.181818181818
scalar Network.dyn_peer[972] 	lookupTimeSig:mean 	2.68
scalar Network.dyn_peer[972] 	lookupStabilitySig:mean 	0.90190489236265
scalar Network.dyn_peer[972] 	lookupHopsSig:mean 	26
scalar Network.dyn_peer[973] 	lookupTimeSig:mean 	2.08
scalar Network.dyn_peer[973] 	lookupStabilitySig:mean 	0.80945775136352
scalar Network.dyn_peer[973] 	lookupHopsSig:mean 	20
scalar Network.dyn_peer[974] 	lookupTimeSig:mean 	1.8833333333333
scalar Network.dyn_peer[974] 	lookupStabilitySig:mean 	0.8877841119344
scalar Network.dyn_peer[974] 	lookupHopsSig:mean 	18
scalar Network.dyn_peer[975] 	lookupTimeSig:mean 	1.4857142857143
scalar Network.dyn_peer[975] 	lookupStabilitySig:mean 	0.86019064658987
scalar Network.dyn_peer[975] 	lookupHopsSig:mean 	14
scalar Network.dyn_peer[976] 	lookupTimeSig:mean 	2.4
scalar Network.dyn_peer[976] 	lookupStabilitySig:mean 	0.86511550936848
scalar Network.dyn_peer[976] 	lookupHopsSig:mean 	23.25
scalar Network.dyn_peer[977] 	lookupTimeSig:mean 	2.025
scalar Network.dyn_peer[977] 	lookupStabilitySig:mean 	0.89685902251222
scalar Network.dyn_peer[977] 	lookupHopsSig:mean 	19.375
scalar Network.dyn_peer[978] 	lookupTimeSig:mean 	1.7
scalar Network.dyn_peer[978] 	lookupStabilitySig:mean 	0.70554370433092
scalar Network.dyn_peer[978] 	lookupHopsSig:mean 	16.25
scalar Network.dyn_peer[979] 	lookupTimeSig:mean 	2.5222222222222
scalar Network.dyn_peer[979] 	lookupStabilitySig:mean 	0.9347529867664
scalar Network.dyn_peer[979] 	lookupHopsSig:mean 	24.333333333333
scalar Network.dyn_peer[980] 	lookupTimeSig:mean 	1.46
scalar Network.dyn_peer[980] 	lookupStabilitySig:mean 	0.90428458722308
scalar Network.dyn_peer[980] 	lookupHopsSig:mean 	13.7
scalar Network.dyn_peer[981] 	lookupTimeSig:mean 	1.125
scalar Network.dyn_peer[981] 	lookupStabilitySig:mean 	0.87836652860278
scalar Network.dyn_peer[981] 	lookupHopsSig:mean 	10.375
scalar Network.dyn_peer[982] 	lookupTimeSig:mean 	1.8
scalar Network.dyn_peer[982] 	lookupStabilitySig:mean 	0.90799551829696
scalar Network.dyn_peer[982] 	lookupHopsSig:mean 	17.142857142857
scalar Network.dyn_peer[983] 	lookupTimeSig:mean 	1.85
scalar Network.dyn_peer[983] 	lookupStabilitySig:mean 	0.39212007820606
scalar Network.dyn_peer[983] 	lookupHopsSig:mean 	18
scalar Network.dyn_peer[984] 	lookupTimeSig:mean 	0.72857142857143
scalar Network.dyn_peer[984] 	lookupStabilitySig:mean 	0.8294665238687
scalar Network.dyn_peer[984] 	lookupHopsSig:mean 	6.4285714285714
scalar Network.dyn_peer[985] 	lookupTimeSig:mean 	2.3142857142857
scalar Network.dyn_peer[985] 	lookupStabilitySig:mean 	0.9524494772777
scalar Network.dyn_peer[985] 	lookupHopsSig:mean 	22.285714285714
scalar Network.dyn_peer[986] 	lookupTimeSig:mean 	3
scalar Network.dyn_peer[986] 	lookupStabilitySig:mean 	0.68887447752059
scalar Network.dyn_peer[986] 	lookupHopsSig:mean 	29.25
scalar Network.dyn_peer[987] 	lookupTimeSig:mean 	2.2333333333333
scalar Network.dyn_peer[987] 	lookupStabilitySig:mean 	0.5488396336635
scalar Network.dyn_peer[987] 	lookupHopsSig:mean 	21.666666666667
scalar Network.dyn_peer[988] 	lookupTimeSig:mean 	2.1833333333333
scalar Network.dyn_peer[988] 	lookupStabilitySig:mean 	0.7638165767615
scalar Network.dyn_peer[988] 	lookupHopsSig:mean 	21
scalar Network.dyn_peer[989] 	lookupTimeSig:mean 	1.9
scalar Network.dyn_peer[989] 	lookupStabilitySig:mean 	0.94594895327464
scalar Network.dyn_peer[989] 	lookupHopsSig:mean 	18.111111111111
scalar Network.dyn_peer[990] 	lookupTimeSig:mean 	2.2
scalar Network.dyn_peer[990] 	lookupStabilitySig:mean 	0.62596762925386
scalar Network.dyn_peer[990] 	lookupHopsSig:mean 	21.25
scalar Network.dyn_peer[991] 	lookupTimeSig:mean 	1.1
scalar Network.dyn_peer[991] 	lookupStabilitySig:mean 	0.86311332524444
scalar Network.dyn_peer[991] 	lookupHopsSig:mean 	10.166666666667
scalar Network.dyn_peer[992] 	lookupTimeSig:mean 	1.8
scalar Network.dyn_peer[992] 	lookupStabilitySig:mean 	0.56724804888169
scalar Network.dyn_peer[992] 	lookupHopsSig:mean 	17.333333333333
scalar Network.dyn_peer[993] 	lookupTimeSig:mean 	1.6875
scalar Network.dyn_peer[993] 	lookupStabilitySig:mean 	0.83510699612089
scalar Network.dyn_peer[993] 	lookupHopsSig:mean 	16
scalar Network.dyn_peer[994] 	lookupTimeSig:mean 	3.5
scalar Network.dyn_peer[994] 	lookupStabilitySig:mean 	0.67898188531399
scalar Network.dyn_peer[994] 	lookupHopsSig:mean 	34.5
scalar Network.dyn_peer[995] 	lookupTimeSig:mean 	2.15
scalar Network.dyn_peer[995] 	lookupStabilitySig:mean 	0.77385047078133
scalar Network.dyn_peer[995] 	lookupHopsSig:mean 	20.75
scalar Network.dyn_peer[996] 	lookupTimeSig:mean 	1.7333333333333
scalar Network.dyn_peer[996] 	lookupStabilitySig:mean 	0.66460069020589
scalar Network.dyn_peer[996] 	lookupHopsSig:mean 	16.5
scalar Network.dyn_peer[997] 	lookupTimeSig:mean 	1.7555555555556
scalar Network.dyn_peer[997] 	lookupStabilitySig:mean 	0.83708676535429
scalar Network.dyn_peer[997] 	lookupHopsSig:mean 	16.666666666667
scalar Network.dyn_peer[998] 	lookupTimeSig:mean 	1.42
scalar Network.dyn_peer[998] 	lookupStabilitySig:mean 	0.70149628557265
scalar Network.dyn_peer[998] 	lookupHopsSig:mean 	13.4
scalar Network.dyn_peer[999] 	lookupTimeSig:mean 	1.97
scalar Network.dyn_peer[999] 	lookupStabilitySig:mean 	0.84880376160145
scalar Network.dyn_peer[999] 	lookupHopsSig:mean 	18.8
scalar Network.churner 	inGoingSizeSig:mean 	499.000999001
