version 2
run Stability-40-20130525-17:44:41-19193
attr configname Stability
attr datetime 20130525-17:44:41
attr experiment Stability
attr inifile omnetpp.ini
attr iterationvars $0=1e2
attr iterationvars2 "$0=1e2, $repetition=0"
attr measurement $0=1e2
attr network Network
attr processid 19193
attr repetition 0
attr replication #0
attr resultdir results
attr runnumber 40
attr seedset 40

scalar Network.dyn_peer[0] 	lookupTimeSig:mean 	0.33579335793358
scalar Network.dyn_peer[0] 	lookupStabilitySig:mean 	0.65405904059041
scalar Network.dyn_peer[0] 	lookupHopsSig:mean 	2.7675276752768
scalar Network.dyn_peer[1] 	lookupTimeSig:mean 	0.33807829181495
scalar Network.dyn_peer[1] 	lookupStabilitySig:mean 	0.64912020560898
scalar Network.dyn_peer[1] 	lookupHopsSig:mean 	2.8078291814947
scalar Network.dyn_peer[2] 	lookupTimeSig:mean 	0.3317880794702
scalar Network.dyn_peer[2] 	lookupStabilitySig:mean 	0.65769867549669
scalar Network.dyn_peer[2] 	lookupHopsSig:mean 	2.7384105960265
scalar Network.dyn_peer[3] 	lookupTimeSig:mean 	0.33311688311688
scalar Network.dyn_peer[3] 	lookupStabilitySig:mean 	0.66130050503975
scalar Network.dyn_peer[3] 	lookupHopsSig:mean 	2.711038961039
scalar Network.dyn_peer[4] 	lookupTimeSig:mean 	0.33082191780822
scalar Network.dyn_peer[4] 	lookupStabilitySig:mean 	0.66666666660713
scalar Network.dyn_peer[4] 	lookupHopsSig:mean 	2.6712328767123
scalar Network.dyn_peer[5] 	lookupTimeSig:mean 	0.33
scalar Network.dyn_peer[5] 	lookupStabilitySig:mean 	0.65613026819352
scalar Network.dyn_peer[5] 	lookupHopsSig:mean 	2.751724137931
scalar Network.dyn_peer[6] 	lookupTimeSig:mean 	0.34
scalar Network.dyn_peer[6] 	lookupStabilitySig:mean 	0.64535440612456
scalar Network.dyn_peer[6] 	lookupHopsSig:mean 	2.8379310344828
scalar Network.dyn_peer[7] 	lookupTimeSig:mean 	0.33576388888889
scalar Network.dyn_peer[7] 	lookupStabilitySig:mean 	0.65432098763995
scalar Network.dyn_peer[7] 	lookupHopsSig:mean 	2.7673611111111
scalar Network.dyn_peer[8] 	lookupTimeSig:mean 	0.34063604240283
scalar Network.dyn_peer[8] 	lookupStabilitySig:mean 	0.64821358456839
scalar Network.dyn_peer[8] 	lookupHopsSig:mean 	2.8162544169611
scalar Network.dyn_peer[9] 	lookupTimeSig:mean 	0.33589743589744
scalar Network.dyn_peer[9] 	lookupStabilitySig:mean 	0.65150590142706
scalar Network.dyn_peer[9] 	lookupHopsSig:mean 	2.7912087912088
scalar Network.dyn_peer[10] 	lookupTimeSig:mean 	0.35072463768116
scalar Network.dyn_peer[10] 	lookupStabilitySig:mean 	0.63511473426352
scalar Network.dyn_peer[10] 	lookupHopsSig:mean 	2.9202898550725
scalar Network.dyn_peer[11] 	lookupTimeSig:mean 	0.35357142857143
scalar Network.dyn_peer[11] 	lookupStabilitySig:mean 	0.62961309522923
scalar Network.dyn_peer[11] 	lookupHopsSig:mean 	2.9642857142857
scalar Network.dyn_peer[12] 	lookupTimeSig:mean 	0.33413793103448
scalar Network.dyn_peer[12] 	lookupStabilitySig:mean 	0.64923371646939
scalar Network.dyn_peer[12] 	lookupHopsSig:mean 	2.8068965517241
scalar Network.dyn_peer[13] 	lookupTimeSig:mean 	0.33263888888889
scalar Network.dyn_peer[13] 	lookupStabilitySig:mean 	0.65562307097328
scalar Network.dyn_peer[13] 	lookupHopsSig:mean 	2.7569444444444
scalar Network.dyn_peer[14] 	lookupTimeSig:mean 	0.35827586206897
scalar Network.dyn_peer[14] 	lookupStabilitySig:mean 	0.62456896551724
scalar Network.dyn_peer[14] 	lookupHopsSig:mean 	3.0034482758621
scalar Network.dyn_peer[15] 	lookupTimeSig:mean 	0.3434628975265
scalar Network.dyn_peer[15] 	lookupStabilitySig:mean 	0.64355123674912
scalar Network.dyn_peer[15] 	lookupHopsSig:mean 	2.8515901060071
scalar Network.dyn_peer[16] 	lookupTimeSig:mean 	0.35461538461538
scalar Network.dyn_peer[16] 	lookupStabilitySig:mean 	0.625
scalar Network.dyn_peer[16] 	lookupHopsSig:mean 	3
scalar Network.dyn_peer[17] 	lookupTimeSig:mean 	0.34688644688645
scalar Network.dyn_peer[17] 	lookupStabilitySig:mean 	0.63970288969986
scalar Network.dyn_peer[17] 	lookupHopsSig:mean 	2.8827838827839
scalar Network.dyn_peer[18] 	lookupTimeSig:mean 	0.3494623655914
scalar Network.dyn_peer[18] 	lookupStabilitySig:mean 	0.63769414572306
scalar Network.dyn_peer[18] 	lookupHopsSig:mean 	2.8996415770609
scalar Network.dyn_peer[19] 	lookupTimeSig:mean 	0.33720136518771
scalar Network.dyn_peer[19] 	lookupStabilitySig:mean 	0.6561433447099
scalar Network.dyn_peer[19] 	lookupHopsSig:mean 	2.7508532423208
scalar Network.dyn_peer[20] 	lookupTimeSig:mean 	0.34416961130742
scalar Network.dyn_peer[20] 	lookupStabilitySig:mean 	0.64060659596019
scalar Network.dyn_peer[20] 	lookupHopsSig:mean 	2.8763250883392
scalar Network.dyn_peer[21] 	lookupTimeSig:mean 	0.3202657807309
scalar Network.dyn_peer[21] 	lookupStabilitySig:mean 	0.67566445180249
scalar Network.dyn_peer[21] 	lookupHopsSig:mean 	2.5980066445183
scalar Network.dyn_peer[22] 	lookupTimeSig:mean 	0.34526315789474
scalar Network.dyn_peer[22] 	lookupStabilitySig:mean 	0.64346978544143
scalar Network.dyn_peer[22] 	lookupHopsSig:mean 	2.859649122807
scalar Network.dyn_peer[23] 	lookupTimeSig:mean 	0.33297101449275
scalar Network.dyn_peer[23] 	lookupStabilitySig:mean 	0.65624999986503
scalar Network.dyn_peer[23] 	lookupHopsSig:mean 	2.7536231884058
scalar Network.dyn_peer[24] 	lookupTimeSig:mean 	0.30992907801418
scalar Network.dyn_peer[24] 	lookupStabilitySig:mean 	0.68548069344767
scalar Network.dyn_peer[24] 	lookupHopsSig:mean 	2.5177304964539
scalar Network.dyn_peer[25] 	lookupTimeSig:mean 	0.34729241877256
scalar Network.dyn_peer[25] 	lookupStabilitySig:mean 	0.64004211789434
scalar Network.dyn_peer[25] 	lookupHopsSig:mean 	2.8808664259928
scalar Network.dyn_peer[26] 	lookupTimeSig:mean 	0.35795053003534
scalar Network.dyn_peer[26] 	lookupStabilitySig:mean 	0.62691401634958
scalar Network.dyn_peer[26] 	lookupHopsSig:mean 	2.9893992932862
scalar Network.dyn_peer[27] 	lookupTimeSig:mean 	0.34280821917808
scalar Network.dyn_peer[27] 	lookupStabilitySig:mean 	0.64916286148029
scalar Network.dyn_peer[27] 	lookupHopsSig:mean 	2.8082191780822
scalar Network.dyn_peer[28] 	lookupTimeSig:mean 	0.33992805755396
scalar Network.dyn_peer[28] 	lookupStabilitySig:mean 	0.65342725818749
scalar Network.dyn_peer[28] 	lookupHopsSig:mean 	2.773381294964
scalar Network.dyn_peer[29] 	lookupTimeSig:mean 	0.32992700729927
scalar Network.dyn_peer[29] 	lookupStabilitySig:mean 	0.66403081909801
scalar Network.dyn_peer[29] 	lookupHopsSig:mean 	2.6897810218978
scalar Network.dyn_peer[30] 	lookupTimeSig:mean 	0.34061433447099
scalar Network.dyn_peer[30] 	lookupStabilitySig:mean 	0.64528820628091
scalar Network.dyn_peer[30] 	lookupHopsSig:mean 	2.839590443686
scalar Network.dyn_peer[31] 	lookupTimeSig:mean 	0.35037593984962
scalar Network.dyn_peer[31] 	lookupStabilitySig:mean 	0.6323621553698
scalar Network.dyn_peer[31] 	lookupHopsSig:mean 	2.9436090225564
