version 2
run Stability-143-20130525-17:51:44-19193
attr configname Stability
attr datetime 20130525-17:51:44
attr experiment Stability
attr inifile omnetpp.ini
attr iterationvars $0=1e-8
attr iterationvars2 "$0=1e-8, $repetition=3"
attr measurement $0=1e-8
attr network Network
attr processid 19193
attr repetition 3
attr replication #3
attr resultdir results
attr runnumber 143
attr seedset 143

scalar Network.dyn_peer[0] 	lookupTimeSig:mean 	0.44375
scalar Network.dyn_peer[0] 	lookupStabilitySig:mean 	0.50381944437977
scalar Network.dyn_peer[0] 	lookupHopsSig:mean 	3.971875
scalar Network.dyn_peer[1] 	lookupTimeSig:mean 	0.4813880126183
scalar Network.dyn_peer[1] 	lookupStabilitySig:mean 	0.46770942855145
scalar Network.dyn_peer[1] 	lookupHopsSig:mean 	4.2649842271293
scalar Network.dyn_peer[2] 	lookupTimeSig:mean 	0.49486301369863
scalar Network.dyn_peer[2] 	lookupStabilitySig:mean 	0.44901065441639
scalar Network.dyn_peer[2] 	lookupHopsSig:mean 	4.4143835616438
scalar Network.dyn_peer[3] 	lookupTimeSig:mean 	0.49819494584838
scalar Network.dyn_peer[3] 	lookupStabilitySig:mean 	0.43231046931408
scalar Network.dyn_peer[3] 	lookupHopsSig:mean 	4.5415162454874
scalar Network.dyn_peer[4] 	lookupTimeSig:mean 	0.48833922261484
scalar Network.dyn_peer[4] 	lookupStabilitySig:mean 	0.45053003533569
scalar Network.dyn_peer[4] 	lookupHopsSig:mean 	4.3957597173145
scalar Network.dyn_peer[5] 	lookupTimeSig:mean 	0.43575949367089
scalar Network.dyn_peer[5] 	lookupStabilitySig:mean 	0.52223980308899
scalar Network.dyn_peer[5] 	lookupHopsSig:mean 	3.8227848101266
scalar Network.dyn_peer[6] 	lookupTimeSig:mean 	0.44208754208754
scalar Network.dyn_peer[6] 	lookupStabilitySig:mean 	0.50505050505051
scalar Network.dyn_peer[6] 	lookupHopsSig:mean 	3.959595959596
scalar Network.dyn_peer[7] 	lookupTimeSig:mean 	0.48348623853211
scalar Network.dyn_peer[7] 	lookupStabilitySig:mean 	0.45833333333333
scalar Network.dyn_peer[7] 	lookupHopsSig:mean 	4.3333333333333
scalar Network.dyn_peer[8] 	lookupTimeSig:mean 	0.44868421052632
scalar Network.dyn_peer[8] 	lookupStabilitySig:mean 	0.49794407894737
scalar Network.dyn_peer[8] 	lookupHopsSig:mean 	4.0164473684211
scalar Network.dyn_peer[9] 	lookupTimeSig:mean 	0.47544483985765
scalar Network.dyn_peer[9] 	lookupStabilitySig:mean 	0.46258402522985
scalar Network.dyn_peer[9] 	lookupHopsSig:mean 	4.3024911032028
scalar Network.dyn_peer[10] 	lookupTimeSig:mean 	0.50272108843537
scalar Network.dyn_peer[10] 	lookupStabilitySig:mean 	0.42819349961926
scalar Network.dyn_peer[10] 	lookupHopsSig:mean 	4.5748299319728
scalar Network.dyn_peer[11] 	lookupTimeSig:mean 	0.44451410658307
scalar Network.dyn_peer[11] 	lookupStabilitySig:mean 	0.50239463589595
scalar Network.dyn_peer[11] 	lookupHopsSig:mean 	3.9843260188088
scalar Network.dyn_peer[12] 	lookupTimeSig:mean 	0.51649122807018
scalar Network.dyn_peer[12] 	lookupStabilitySig:mean 	0.41072124729031
scalar Network.dyn_peer[12] 	lookupHopsSig:mean 	4.7298245614035
scalar Network.dyn_peer[13] 	lookupTimeSig:mean 	0.48556701030928
scalar Network.dyn_peer[13] 	lookupStabilitySig:mean 	0.45480145091556
scalar Network.dyn_peer[13] 	lookupHopsSig:mean 	4.3642611683849
scalar Network.dyn_peer[14] 	lookupTimeSig:mean 	0.49155405405405
scalar Network.dyn_peer[14] 	lookupStabilitySig:mean 	0.44214527027027
scalar Network.dyn_peer[14] 	lookupHopsSig:mean 	4.4628378378378
scalar Network.dyn_peer[15] 	lookupTimeSig:mean 	0.47232704402516
scalar Network.dyn_peer[15] 	lookupStabilitySig:mean 	0.46999475884737
scalar Network.dyn_peer[15] 	lookupHopsSig:mean 	4.2452830188679
scalar Network.dyn_peer[16] 	lookupTimeSig:mean 	0.49
scalar Network.dyn_peer[16] 	lookupStabilitySig:mean 	0.44885057470408
scalar Network.dyn_peer[16] 	lookupHopsSig:mean 	4.4103448275862
scalar Network.dyn_peer[17] 	lookupTimeSig:mean 	0.47974276527331
scalar Network.dyn_peer[17] 	lookupStabilitySig:mean 	0.4655234012094
scalar Network.dyn_peer[17] 	lookupHopsSig:mean 	4.2765273311897
scalar Network.dyn_peer[18] 	lookupTimeSig:mean 	0.46813559322034
scalar Network.dyn_peer[18] 	lookupStabilitySig:mean 	0.47330508474576
scalar Network.dyn_peer[18] 	lookupHopsSig:mean 	4.2135593220339
scalar Network.dyn_peer[19] 	lookupTimeSig:mean 	0.51080139372822
scalar Network.dyn_peer[19] 	lookupStabilitySig:mean 	0.42620015476639
scalar Network.dyn_peer[19] 	lookupHopsSig:mean 	4.5923344947735
scalar Network.dyn_peer[20] 	lookupTimeSig:mean 	0.49026845637584
scalar Network.dyn_peer[20] 	lookupStabilitySig:mean 	0.44505033557047
scalar Network.dyn_peer[20] 	lookupHopsSig:mean 	4.4395973154362
scalar Network.dyn_peer[21] 	lookupTimeSig:mean 	0.47669902912621
scalar Network.dyn_peer[21] 	lookupStabilitySig:mean 	0.45914239482201
scalar Network.dyn_peer[21] 	lookupHopsSig:mean 	4.3268608414239
scalar Network.dyn_peer[22] 	lookupTimeSig:mean 	0.43993288590604
scalar Network.dyn_peer[22] 	lookupStabilitySig:mean 	0.5155667411851
scalar Network.dyn_peer[22] 	lookupHopsSig:mean 	3.8791946308725
scalar Network.dyn_peer[23] 	lookupTimeSig:mean 	0.47050847457627
scalar Network.dyn_peer[23] 	lookupStabilitySig:mean 	0.47302259881113
scalar Network.dyn_peer[23] 	lookupHopsSig:mean 	4.2203389830508
scalar Network.dyn_peer[24] 	lookupTimeSig:mean 	0.49551724137931
scalar Network.dyn_peer[24] 	lookupStabilitySig:mean 	0.43735632177057
scalar Network.dyn_peer[24] 	lookupHopsSig:mean 	4.5034482758621
scalar Network.dyn_peer[25] 	lookupTimeSig:mean 	0.45258064516129
scalar Network.dyn_peer[25] 	lookupStabilitySig:mean 	0.4953405017574
scalar Network.dyn_peer[25] 	lookupHopsSig:mean 	4.0387096774194
scalar Network.dyn_peer[26] 	lookupTimeSig:mean 	0.46342281879195
scalar Network.dyn_peer[26] 	lookupStabilitySig:mean 	0.48070469788657
scalar Network.dyn_peer[26] 	lookupHopsSig:mean 	4.1577181208054
scalar Network.dyn_peer[27] 	lookupTimeSig:mean 	0.48118811881188
scalar Network.dyn_peer[27] 	lookupStabilitySig:mean 	0.45503300330033
scalar Network.dyn_peer[27] 	lookupHopsSig:mean 	4.3597359735974
scalar Network.dyn_peer[28] 	lookupTimeSig:mean 	0.44396284829721
scalar Network.dyn_peer[28] 	lookupStabilitySig:mean 	0.50163398692298
scalar Network.dyn_peer[28] 	lookupHopsSig:mean 	3.9876160990712
scalar Network.dyn_peer[29] 	lookupTimeSig:mean 	0.48829787234043
scalar Network.dyn_peer[29] 	lookupStabilitySig:mean 	0.44902482269504
scalar Network.dyn_peer[29] 	lookupHopsSig:mean 	4.4078014184397
scalar Network.dyn_peer[30] 	lookupTimeSig:mean 	0.46904761904762
scalar Network.dyn_peer[30] 	lookupStabilitySig:mean 	0.48006424779186
scalar Network.dyn_peer[30] 	lookupHopsSig:mean 	4.1632653061224
scalar Network.dyn_peer[31] 	lookupTimeSig:mean 	0.51194539249147
scalar Network.dyn_peer[31] 	lookupStabilitySig:mean 	0.41296928327645
scalar Network.dyn_peer[31] 	lookupHopsSig:mean 	4.6962457337884
