version 2
run Stability-66-20130525-17:46:26-19193
attr configname Stability
attr datetime 20130525-17:46:26
attr experiment Stability
attr inifile omnetpp.ini
attr iterationvars $0=1e0
attr iterationvars2 "$0=1e0, $repetition=6"
attr measurement $0=1e0
attr network Network
attr processid 19193
attr repetition 6
attr replication #6
attr resultdir results
attr runnumber 66
attr seedset 66

scalar Network.dyn_peer[0] 	lookupTimeSig:mean 	0.47281879194631
scalar Network.dyn_peer[0] 	lookupStabilitySig:mean 	0.47147651006711
scalar Network.dyn_peer[0] 	lookupHopsSig:mean 	4.2315436241611
scalar Network.dyn_peer[1] 	lookupTimeSig:mean 	0.46313993174061
scalar Network.dyn_peer[1] 	lookupStabilitySig:mean 	0.48080204778157
scalar Network.dyn_peer[1] 	lookupHopsSig:mean 	4.1535836177474
scalar Network.dyn_peer[2] 	lookupTimeSig:mean 	0.47789473684211
scalar Network.dyn_peer[2] 	lookupStabilitySig:mean 	0.45925925907336
scalar Network.dyn_peer[2] 	lookupHopsSig:mean 	4.3298245614035
scalar Network.dyn_peer[3] 	lookupTimeSig:mean 	0.46632653061225
scalar Network.dyn_peer[3] 	lookupStabilitySig:mean 	0.48266250944259
scalar Network.dyn_peer[3] 	lookupHopsSig:mean 	4.1394557823129
scalar Network.dyn_peer[4] 	lookupTimeSig:mean 	0.49485294117647
scalar Network.dyn_peer[4] 	lookupStabilitySig:mean 	0.44669117647059
scalar Network.dyn_peer[4] 	lookupHopsSig:mean 	4.4264705882353
scalar Network.dyn_peer[5] 	lookupTimeSig:mean 	0.47740863787375
scalar Network.dyn_peer[5] 	lookupStabilitySig:mean 	0.46534699147128
scalar Network.dyn_peer[5] 	lookupHopsSig:mean 	4.2790697674419
scalar Network.dyn_peer[6] 	lookupTimeSig:mean 	0.44937106918239
scalar Network.dyn_peer[6] 	lookupStabilitySig:mean 	0.50043675739248
scalar Network.dyn_peer[6] 	lookupHopsSig:mean 	4.0031446540881
scalar Network.dyn_peer[7] 	lookupTimeSig:mean 	0.45
scalar Network.dyn_peer[7] 	lookupStabilitySig:mean 	0.49618902439024
scalar Network.dyn_peer[7] 	lookupHopsSig:mean 	4.030487804878
scalar Network.dyn_peer[8] 	lookupTimeSig:mean 	0.49641577060932
scalar Network.dyn_peer[8] 	lookupStabilitySig:mean 	0.43916766228001
scalar Network.dyn_peer[8] 	lookupHopsSig:mean 	4.4874551971326
scalar Network.dyn_peer[9] 	lookupTimeSig:mean 	0.47534246575343
scalar Network.dyn_peer[9] 	lookupStabilitySig:mean 	0.46199581430179
scalar Network.dyn_peer[9] 	lookupHopsSig:mean 	4.3047945205479
scalar Network.dyn_peer[10] 	lookupTimeSig:mean 	0.45925925925926
scalar Network.dyn_peer[10] 	lookupStabilitySig:mean 	0.49013280948806
scalar Network.dyn_peer[10] 	lookupHopsSig:mean 	4.0841750841751
scalar Network.dyn_peer[11] 	lookupTimeSig:mean 	0.51590909090909
scalar Network.dyn_peer[11] 	lookupStabilitySig:mean 	0.41666666666667
scalar Network.dyn_peer[11] 	lookupHopsSig:mean 	4.6666666666667
scalar Network.dyn_peer[12] 	lookupTimeSig:mean 	0.47837837837838
scalar Network.dyn_peer[12] 	lookupStabilitySig:mean 	0.45720720720721
scalar Network.dyn_peer[12] 	lookupHopsSig:mean 	4.3423423423423
scalar Network.dyn_peer[13] 	lookupTimeSig:mean 	0.46217105263158
scalar Network.dyn_peer[13] 	lookupStabilitySig:mean 	0.47838998534472
scalar Network.dyn_peer[13] 	lookupHopsSig:mean 	4.1743421052632
scalar Network.dyn_peer[14] 	lookupTimeSig:mean 	0.4417445482866
scalar Network.dyn_peer[14] 	lookupStabilitySig:mean 	0.51445136725253
scalar Network.dyn_peer[14] 	lookupHopsSig:mean 	3.8847352024922
scalar Network.dyn_peer[15] 	lookupTimeSig:mean 	0.49575971731449
scalar Network.dyn_peer[15] 	lookupStabilitySig:mean 	0.43546329001656
scalar Network.dyn_peer[15] 	lookupHopsSig:mean 	4.5194346289753
scalar Network.dyn_peer[16] 	lookupTimeSig:mean 	0.50103092783505
scalar Network.dyn_peer[16] 	lookupStabilitySig:mean 	0.43690339824076
scalar Network.dyn_peer[16] 	lookupHopsSig:mean 	4.5051546391753
scalar Network.dyn_peer[17] 	lookupTimeSig:mean 	0.45833333333333
scalar Network.dyn_peer[17] 	lookupStabilitySig:mean 	0.4963991769394
scalar Network.dyn_peer[17] 	lookupHopsSig:mean 	4.0308641975309
scalar Network.dyn_peer[18] 	lookupTimeSig:mean 	0.46989966555184
scalar Network.dyn_peer[18] 	lookupStabilitySig:mean 	0.47826086956522
scalar Network.dyn_peer[18] 	lookupHopsSig:mean 	4.1739130434783
scalar Network.dyn_peer[19] 	lookupTimeSig:mean 	0.44591194968554
scalar Network.dyn_peer[19] 	lookupStabilitySig:mean 	0.5078179593075
scalar Network.dyn_peer[19] 	lookupHopsSig:mean 	3.9433962264151
scalar Network.dyn_peer[20] 	lookupTimeSig:mean 	0.50818505338078
scalar Network.dyn_peer[20] 	lookupStabilitySig:mean 	0.42437722419929
scalar Network.dyn_peer[20] 	lookupHopsSig:mean 	4.6049822064057
scalar Network.dyn_peer[21] 	lookupTimeSig:mean 	0.45382165605096
scalar Network.dyn_peer[21] 	lookupStabilitySig:mean 	0.49654989381125
scalar Network.dyn_peer[21] 	lookupHopsSig:mean 	4.0286624203822
scalar Network.dyn_peer[22] 	lookupTimeSig:mean 	0.47157894736842
scalar Network.dyn_peer[22] 	lookupStabilitySig:mean 	0.47358674454062
scalar Network.dyn_peer[22] 	lookupHopsSig:mean 	4.2140350877193
scalar Network.dyn_peer[23] 	lookupTimeSig:mean 	0.46345514950166
scalar Network.dyn_peer[23] 	lookupStabilitySig:mean 	0.48712624584718
scalar Network.dyn_peer[23] 	lookupHopsSig:mean 	4.1029900332226
scalar Network.dyn_peer[24] 	lookupTimeSig:mean 	0.47569444444444
scalar Network.dyn_peer[24] 	lookupStabilitySig:mean 	0.47164351844953
scalar Network.dyn_peer[24] 	lookupHopsSig:mean 	4.2291666666667
scalar Network.dyn_peer[25] 	lookupTimeSig:mean 	0.48776978417266
scalar Network.dyn_peer[25] 	lookupStabilitySig:mean 	0.44444444443253
scalar Network.dyn_peer[25] 	lookupHopsSig:mean 	4.4460431654676
scalar Network.dyn_peer[26] 	lookupTimeSig:mean 	0.46369636963696
scalar Network.dyn_peer[26] 	lookupStabilitySig:mean 	0.47951045101232
scalar Network.dyn_peer[26] 	lookupHopsSig:mean 	4.1650165016502
scalar Network.dyn_peer[27] 	lookupTimeSig:mean 	0.44634146341463
scalar Network.dyn_peer[27] 	lookupStabilitySig:mean 	0.50372628704077
scalar Network.dyn_peer[27] 	lookupHopsSig:mean 	3.9756097560976
scalar Network.dyn_peer[28] 	lookupTimeSig:mean 	0.43589743589744
scalar Network.dyn_peer[28] 	lookupStabilitySig:mean 	0.52301460103347
scalar Network.dyn_peer[28] 	lookupHopsSig:mean 	3.8205128205128
scalar Network.dyn_peer[29] 	lookupTimeSig:mean 	0.44330218068536
scalar Network.dyn_peer[29] 	lookupStabilitySig:mean 	0.51678781585066
scalar Network.dyn_peer[29] 	lookupHopsSig:mean 	3.8660436137072
scalar Network.dyn_peer[30] 	lookupTimeSig:mean 	0.46645768025078
scalar Network.dyn_peer[30] 	lookupStabilitySig:mean 	0.47387669798349
scalar Network.dyn_peer[30] 	lookupHopsSig:mean 	4.2100313479624
scalar Network.dyn_peer[31] 	lookupTimeSig:mean 	0.47060702875399
scalar Network.dyn_peer[31] 	lookupStabilitySig:mean 	0.47177848774499
scalar Network.dyn_peer[31] 	lookupHopsSig:mean 	4.2268370607029
