version 2
run Stability-52-20130525-17:45:27-19193
attr configname Stability
attr datetime 20130525-17:45:27
attr experiment Stability
attr inifile omnetpp.ini
attr iterationvars $0=1e1
attr iterationvars2 "$0=1e1, $repetition=2"
attr measurement $0=1e1
attr network Network
attr processid 19193
attr repetition 2
attr replication #2
attr resultdir results
attr runnumber 52
attr seedset 52

scalar Network.dyn_peer[0] 	lookupTimeSig:mean 	0.4958041958042
scalar Network.dyn_peer[0] 	lookupStabilitySig:mean 	0.43798562548273
scalar Network.dyn_peer[0] 	lookupHopsSig:mean 	4.4965034965035
scalar Network.dyn_peer[1] 	lookupTimeSig:mean 	0.48591549295775
scalar Network.dyn_peer[1] 	lookupStabilitySig:mean 	0.4591647104793
scalar Network.dyn_peer[1] 	lookupHopsSig:mean 	4.3274647887324
scalar Network.dyn_peer[2] 	lookupTimeSig:mean 	0.41818181818182
scalar Network.dyn_peer[2] 	lookupStabilitySig:mean 	0.54802489174264
scalar Network.dyn_peer[2] 	lookupHopsSig:mean 	3.6168831168831
scalar Network.dyn_peer[3] 	lookupTimeSig:mean 	0.47569444444444
scalar Network.dyn_peer[3] 	lookupStabilitySig:mean 	0.4609375
scalar Network.dyn_peer[3] 	lookupHopsSig:mean 	4.3125
scalar Network.dyn_peer[4] 	lookupTimeSig:mean 	0.46760563380282
scalar Network.dyn_peer[4] 	lookupStabilitySig:mean 	0.47437402186259
scalar Network.dyn_peer[4] 	lookupHopsSig:mean 	4.2077464788732
scalar Network.dyn_peer[5] 	lookupTimeSig:mean 	0.46677966101695
scalar Network.dyn_peer[5] 	lookupStabilitySig:mean 	0.48389830508475
scalar Network.dyn_peer[5] 	lookupHopsSig:mean 	4.128813559322
scalar Network.dyn_peer[6] 	lookupTimeSig:mean 	0.44777070063694
scalar Network.dyn_peer[6] 	lookupStabilitySig:mean 	0.5085810331782
scalar Network.dyn_peer[6] 	lookupHopsSig:mean 	3.9331210191083
scalar Network.dyn_peer[7] 	lookupTimeSig:mean 	0.45960264900662
scalar Network.dyn_peer[7] 	lookupStabilitySig:mean 	0.49471118468915
scalar Network.dyn_peer[7] 	lookupHopsSig:mean 	4.0430463576159
scalar Network.dyn_peer[8] 	lookupTimeSig:mean 	0.47833935018051
scalar Network.dyn_peer[8] 	lookupStabilitySig:mean 	0.45993782590658
scalar Network.dyn_peer[8] 	lookupHopsSig:mean 	4.3212996389892
scalar Network.dyn_peer[9] 	lookupTimeSig:mean 	0.48470149253731
scalar Network.dyn_peer[9] 	lookupStabilitySig:mean 	0.45335820895522
scalar Network.dyn_peer[9] 	lookupHopsSig:mean 	4.3731343283582
scalar Network.dyn_peer[10] 	lookupTimeSig:mean 	0.4598615916955
scalar Network.dyn_peer[10] 	lookupStabilitySig:mean 	0.48269896193772
scalar Network.dyn_peer[10] 	lookupHopsSig:mean 	4.1384083044983
scalar Network.dyn_peer[11] 	lookupTimeSig:mean 	0.49197080291971
scalar Network.dyn_peer[11] 	lookupStabilitySig:mean 	0.44388686131387
scalar Network.dyn_peer[11] 	lookupHopsSig:mean 	4.4489051094891
scalar Network.dyn_peer[12] 	lookupTimeSig:mean 	0.45915492957747
scalar Network.dyn_peer[12] 	lookupStabilitySig:mean 	0.48679577464789
scalar Network.dyn_peer[12] 	lookupHopsSig:mean 	4.1056338028169
scalar Network.dyn_peer[13] 	lookupTimeSig:mean 	0.4771523178808
scalar Network.dyn_peer[13] 	lookupStabilitySig:mean 	0.46113870482867
scalar Network.dyn_peer[13] 	lookupHopsSig:mean 	4.3145695364238
scalar Network.dyn_peer[14] 	lookupTimeSig:mean 	0.45946843853821
scalar Network.dyn_peer[14] 	lookupStabilitySig:mean 	0.49404761898161
scalar Network.dyn_peer[14] 	lookupHopsSig:mean 	4.0498338870432
scalar Network.dyn_peer[15] 	lookupTimeSig:mean 	0.45805369127517
scalar Network.dyn_peer[15] 	lookupStabilitySig:mean 	0.49412751677852
scalar Network.dyn_peer[15] 	lookupHopsSig:mean 	4.0469798657718
scalar Network.dyn_peer[16] 	lookupTimeSig:mean 	0.4611801242236
scalar Network.dyn_peer[16] 	lookupStabilitySig:mean 	0.48697377500697
scalar Network.dyn_peer[16] 	lookupHopsSig:mean 	4.1055900621118
scalar Network.dyn_peer[17] 	lookupTimeSig:mean 	0.47335526315789
scalar Network.dyn_peer[17] 	lookupStabilitySig:mean 	0.47345577464684
scalar Network.dyn_peer[17] 	lookupHopsSig:mean 	4.2171052631579
scalar Network.dyn_peer[18] 	lookupTimeSig:mean 	0.49655172413793
scalar Network.dyn_peer[18] 	lookupStabilitySig:mean 	0.43405172413793
scalar Network.dyn_peer[18] 	lookupHopsSig:mean 	4.5275862068966
scalar Network.dyn_peer[19] 	lookupTimeSig:mean 	0.45685618729097
scalar Network.dyn_peer[19] 	lookupStabilitySig:mean 	0.49136008917787
scalar Network.dyn_peer[19] 	lookupHopsSig:mean 	4.0702341137124
scalar Network.dyn_peer[20] 	lookupTimeSig:mean 	0.45987261146497
scalar Network.dyn_peer[20] 	lookupStabilitySig:mean 	0.48765923566879
scalar Network.dyn_peer[20] 	lookupHopsSig:mean 	4.0987261146497
scalar Network.dyn_peer[21] 	lookupTimeSig:mean 	0.44574132492114
scalar Network.dyn_peer[21] 	lookupStabilitySig:mean 	0.51511566771036
scalar Network.dyn_peer[21] 	lookupHopsSig:mean 	3.8801261829653
scalar Network.dyn_peer[22] 	lookupTimeSig:mean 	0.46709677419355
scalar Network.dyn_peer[22] 	lookupStabilitySig:mean 	0.48337813613396
scalar Network.dyn_peer[22] 	lookupHopsSig:mean 	4.1354838709677
scalar Network.dyn_peer[23] 	lookupTimeSig:mean 	0.45964912280702
scalar Network.dyn_peer[23] 	lookupStabilitySig:mean 	0.49356725142713
scalar Network.dyn_peer[23] 	lookupHopsSig:mean 	4.0526315789474
scalar Network.dyn_peer[24] 	lookupTimeSig:mean 	0.47864406779661
scalar Network.dyn_peer[24] 	lookupStabilitySig:mean 	0.46694915254237
scalar Network.dyn_peer[24] 	lookupHopsSig:mean 	4.264406779661
scalar Network.dyn_peer[25] 	lookupTimeSig:mean 	0.50297397769517
scalar Network.dyn_peer[25] 	lookupStabilitySig:mean 	0.42657992565056
scalar Network.dyn_peer[25] 	lookupHopsSig:mean 	4.5873605947955
scalar Network.dyn_peer[26] 	lookupTimeSig:mean 	0.4496855345912
scalar Network.dyn_peer[26] 	lookupStabilitySig:mean 	0.50659503839301
scalar Network.dyn_peer[26] 	lookupHopsSig:mean 	3.9496855345912
scalar Network.dyn_peer[27] 	lookupTimeSig:mean 	0.45773195876289
scalar Network.dyn_peer[27] 	lookupStabilitySig:mean 	0.48405880102075
scalar Network.dyn_peer[27] 	lookupHopsSig:mean 	4.1305841924399
scalar Network.dyn_peer[28] 	lookupTimeSig:mean 	0.45
scalar Network.dyn_peer[28] 	lookupStabilitySig:mean 	0.50924392932693
scalar Network.dyn_peer[28] 	lookupHopsSig:mean 	3.9271523178808
scalar Network.dyn_peer[29] 	lookupTimeSig:mean 	0.49480968858132
scalar Network.dyn_peer[29] 	lookupStabilitySig:mean 	0.43685121107266
scalar Network.dyn_peer[29] 	lookupHopsSig:mean 	4.5051903114187
scalar Network.dyn_peer[30] 	lookupTimeSig:mean 	0.48521126760563
scalar Network.dyn_peer[30] 	lookupStabilitySig:mean 	0.44894366197183
scalar Network.dyn_peer[30] 	lookupHopsSig:mean 	4.4084507042254
scalar Network.dyn_peer[31] 	lookupTimeSig:mean 	0.4878892733564
scalar Network.dyn_peer[31] 	lookupStabilitySig:mean 	0.44910611302486
scalar Network.dyn_peer[31] 	lookupHopsSig:mean 	4.4083044982699
