version 2
run Stability-92-20130525-17:48:13-19193
attr configname Stability
attr datetime 20130525-17:48:13
attr experiment Stability
attr inifile omnetpp.ini
attr iterationvars $0=1e-3
attr iterationvars2 "$0=1e-3, $repetition=2"
attr measurement $0=1e-3
attr network Network
attr processid 19193
attr repetition 2
attr replication #2
attr resultdir results
attr runnumber 92
attr seedset 92

scalar Network.dyn_peer[0] 	lookupTimeSig:mean 	0.44763406940063
scalar Network.dyn_peer[0] 	lookupStabilitySig:mean 	0.50236593059937
scalar Network.dyn_peer[0] 	lookupHopsSig:mean 	3.981072555205
scalar Network.dyn_peer[1] 	lookupTimeSig:mean 	0.48637992831541
scalar Network.dyn_peer[1] 	lookupStabilitySig:mean 	0.44982078853047
scalar Network.dyn_peer[1] 	lookupHopsSig:mean 	4.4014336917563
scalar Network.dyn_peer[2] 	lookupTimeSig:mean 	0.49039145907473
scalar Network.dyn_peer[2] 	lookupStabilitySig:mean 	0.45131474887137
scalar Network.dyn_peer[2] 	lookupHopsSig:mean 	4.3914590747331
scalar Network.dyn_peer[3] 	lookupTimeSig:mean 	0.44794952681388
scalar Network.dyn_peer[3] 	lookupStabilitySig:mean 	0.5051261829653
scalar Network.dyn_peer[3] 	lookupHopsSig:mean 	3.9589905362776
scalar Network.dyn_peer[4] 	lookupTimeSig:mean 	0.45457516339869
scalar Network.dyn_peer[4] 	lookupStabilitySig:mean 	0.49464415393624
scalar Network.dyn_peer[4] 	lookupHopsSig:mean 	4.0490196078431
scalar Network.dyn_peer[5] 	lookupTimeSig:mean 	0.46590909090909
scalar Network.dyn_peer[5] 	lookupStabilitySig:mean 	0.47555916296778
scalar Network.dyn_peer[5] 	lookupHopsSig:mean 	4.1980519480519
scalar Network.dyn_peer[6] 	lookupTimeSig:mean 	0.51750841750842
scalar Network.dyn_peer[6] 	lookupStabilitySig:mean 	0.40969884024325
scalar Network.dyn_peer[6] 	lookupHopsSig:mean 	4.7239057239057
scalar Network.dyn_peer[7] 	lookupTimeSig:mean 	0.49025270758123
scalar Network.dyn_peer[7] 	lookupStabilitySig:mean 	0.4485559566787
scalar Network.dyn_peer[7] 	lookupHopsSig:mean 	4.4115523465704
scalar Network.dyn_peer[8] 	lookupTimeSig:mean 	0.4327868852459
scalar Network.dyn_peer[8] 	lookupStabilitySig:mean 	0.52846083780293
scalar Network.dyn_peer[8] 	lookupHopsSig:mean 	3.7770491803279
scalar Network.dyn_peer[9] 	lookupTimeSig:mean 	0.50133779264214
scalar Network.dyn_peer[9] 	lookupStabilitySig:mean 	0.43097361558456
scalar Network.dyn_peer[9] 	lookupHopsSig:mean 	4.561872909699
scalar Network.dyn_peer[10] 	lookupTimeSig:mean 	0.47925170068027
scalar Network.dyn_peer[10] 	lookupStabilitySig:mean 	0.46173469387755
scalar Network.dyn_peer[10] 	lookupHopsSig:mean 	4.3061224489796
scalar Network.dyn_peer[11] 	lookupTimeSig:mean 	0.457
scalar Network.dyn_peer[11] 	lookupStabilitySig:mean 	0.48347222221394
scalar Network.dyn_peer[11] 	lookupHopsSig:mean 	4.1333333333333
scalar Network.dyn_peer[12] 	lookupTimeSig:mean 	0.435
scalar Network.dyn_peer[12] 	lookupStabilitySig:mean 	0.52391493050382
scalar Network.dyn_peer[12] 	lookupHopsSig:mean 	3.8125
scalar Network.dyn_peer[13] 	lookupTimeSig:mean 	0.44086687306501
scalar Network.dyn_peer[13] 	lookupStabilitySig:mean 	0.52012383900929
scalar Network.dyn_peer[13] 	lookupHopsSig:mean 	3.8390092879257
scalar Network.dyn_peer[14] 	lookupTimeSig:mean 	0.51612903225806
scalar Network.dyn_peer[14] 	lookupStabilitySig:mean 	0.41034448419207
scalar Network.dyn_peer[14] 	lookupHopsSig:mean 	4.7204301075269
scalar Network.dyn_peer[15] 	lookupTimeSig:mean 	0.47679180887372
scalar Network.dyn_peer[15] 	lookupStabilitySig:mean 	0.45819112627986
scalar Network.dyn_peer[15] 	lookupHopsSig:mean 	4.3344709897611
scalar Network.dyn_peer[16] 	lookupTimeSig:mean 	0.45514950166113
scalar Network.dyn_peer[16] 	lookupStabilitySig:mean 	0.4955241785097
scalar Network.dyn_peer[16] 	lookupHopsSig:mean 	4.0431893687708
scalar Network.dyn_peer[17] 	lookupTimeSig:mean 	0.5038062283737
scalar Network.dyn_peer[17] 	lookupStabilitySig:mean 	0.42387543252595
scalar Network.dyn_peer[17] 	lookupHopsSig:mean 	4.6089965397924
scalar Network.dyn_peer[18] 	lookupTimeSig:mean 	0.46335616438356
scalar Network.dyn_peer[18] 	lookupStabilitySig:mean 	0.48102168942968
scalar Network.dyn_peer[18] 	lookupHopsSig:mean 	4.1541095890411
scalar Network.dyn_peer[19] 	lookupTimeSig:mean 	0.41524926686217
scalar Network.dyn_peer[19] 	lookupStabilitySig:mean 	0.54903877480638
scalar Network.dyn_peer[19] 	lookupHopsSig:mean 	3.6129032258065
scalar Network.dyn_peer[20] 	lookupTimeSig:mean 	0.44056603773585
scalar Network.dyn_peer[20] 	lookupStabilitySig:mean 	0.5177323549939
scalar Network.dyn_peer[20] 	lookupHopsSig:mean 	3.8584905660377
scalar Network.dyn_peer[21] 	lookupTimeSig:mean 	0.45427631578947
scalar Network.dyn_peer[21] 	lookupStabilitySig:mean 	0.49570540934311
scalar Network.dyn_peer[21] 	lookupHopsSig:mean 	4.0361842105263
scalar Network.dyn_peer[22] 	lookupTimeSig:mean 	0.457
scalar Network.dyn_peer[22] 	lookupStabilitySig:mean 	0.49421296278636
scalar Network.dyn_peer[22] 	lookupHopsSig:mean 	4.05
scalar Network.dyn_peer[23] 	lookupTimeSig:mean 	0.46539792387543
scalar Network.dyn_peer[23] 	lookupStabilitySig:mean 	0.47332756628627
scalar Network.dyn_peer[23] 	lookupHopsSig:mean 	4.2145328719723
scalar Network.dyn_peer[24] 	lookupTimeSig:mean 	0.4808362369338
scalar Network.dyn_peer[24] 	lookupStabilitySig:mean 	0.45359078589632
scalar Network.dyn_peer[24] 	lookupHopsSig:mean 	4.3728222996516
scalar Network.dyn_peer[25] 	lookupTimeSig:mean 	0.44837662337662
scalar Network.dyn_peer[25] 	lookupStabilitySig:mean 	0.51010100998275
scalar Network.dyn_peer[25] 	lookupHopsSig:mean 	3.9253246753247
scalar Network.dyn_peer[26] 	lookupTimeSig:mean 	0.45785714285714
scalar Network.dyn_peer[26] 	lookupStabilitySig:mean 	0.48174603174308
scalar Network.dyn_peer[26] 	lookupHopsSig:mean 	4.1464285714286
scalar Network.dyn_peer[27] 	lookupTimeSig:mean 	0.485
scalar Network.dyn_peer[27] 	lookupStabilitySig:mean 	0.45500992062901
scalar Network.dyn_peer[27] 	lookupHopsSig:mean 	4.3607142857143
scalar Network.dyn_peer[28] 	lookupTimeSig:mean 	0.48922558922559
scalar Network.dyn_peer[28] 	lookupStabilitySig:mean 	0.45117845117845
scalar Network.dyn_peer[28] 	lookupHopsSig:mean 	4.3905723905724
scalar Network.dyn_peer[29] 	lookupTimeSig:mean 	0.45094936708861
scalar Network.dyn_peer[29] 	lookupStabilitySig:mean 	0.49709915605527
scalar Network.dyn_peer[29] 	lookupHopsSig:mean 	4.0253164556962
scalar Network.dyn_peer[30] 	lookupTimeSig:mean 	0.46548387096774
scalar Network.dyn_peer[30] 	lookupStabilitySig:mean 	0.47983870967742
scalar Network.dyn_peer[30] 	lookupHopsSig:mean 	4.1612903225806
scalar Network.dyn_peer[31] 	lookupTimeSig:mean 	0.4636678200692
scalar Network.dyn_peer[31] 	lookupStabilitySig:mean 	0.4818339100346
scalar Network.dyn_peer[31] 	lookupHopsSig:mean 	4.1453287197232
