version 2
run Stability-98-20130525-17:48:38-19193
attr configname Stability
attr datetime 20130525-17:48:38
attr experiment Stability
attr inifile omnetpp.ini
attr iterationvars $0=1e-3
attr iterationvars2 "$0=1e-3, $repetition=8"
attr measurement $0=1e-3
attr network Network
attr processid 19193
attr repetition 8
attr replication #8
attr resultdir results
attr runnumber 98
attr seedset 98

scalar Network.dyn_peer[0] 	lookupTimeSig:mean 	0.47297297297297
scalar Network.dyn_peer[0] 	lookupStabilitySig:mean 	0.47001689184155
scalar Network.dyn_peer[0] 	lookupHopsSig:mean 	4.2432432432432
scalar Network.dyn_peer[1] 	lookupTimeSig:mean 	0.43179190751445
scalar Network.dyn_peer[1] 	lookupStabilitySig:mean 	0.52167630057803
scalar Network.dyn_peer[1] 	lookupHopsSig:mean 	3.8294797687861
scalar Network.dyn_peer[2] 	lookupTimeSig:mean 	0.42679738562092
scalar Network.dyn_peer[2] 	lookupStabilitySig:mean 	0.53662854011834
scalar Network.dyn_peer[2] 	lookupHopsSig:mean 	3.7124183006536
scalar Network.dyn_peer[3] 	lookupTimeSig:mean 	0.420625
scalar Network.dyn_peer[3] 	lookupStabilitySig:mean 	0.54218749990687
scalar Network.dyn_peer[3] 	lookupHopsSig:mean 	3.665625
scalar Network.dyn_peer[4] 	lookupTimeSig:mean 	0.48187311178248
scalar Network.dyn_peer[4] 	lookupStabilitySig:mean 	0.449102047662
scalar Network.dyn_peer[4] 	lookupHopsSig:mean 	4.4078549848943
scalar Network.dyn_peer[5] 	lookupTimeSig:mean 	0.44950495049505
scalar Network.dyn_peer[5] 	lookupStabilitySig:mean 	0.50297946460766
scalar Network.dyn_peer[5] 	lookupHopsSig:mean 	3.976897689769
scalar Network.dyn_peer[6] 	lookupTimeSig:mean 	0.43569230769231
scalar Network.dyn_peer[6] 	lookupStabilitySig:mean 	0.52512820512056
scalar Network.dyn_peer[6] 	lookupHopsSig:mean 	3.8
scalar Network.dyn_peer[7] 	lookupTimeSig:mean 	0.44281150159744
scalar Network.dyn_peer[7] 	lookupStabilitySig:mean 	0.502085552048
scalar Network.dyn_peer[7] 	lookupHopsSig:mean 	3.9872204472843
scalar Network.dyn_peer[8] 	lookupTimeSig:mean 	0.49415807560137
scalar Network.dyn_peer[8] 	lookupStabilitySig:mean 	0.4407216491773
scalar Network.dyn_peer[8] 	lookupHopsSig:mean 	4.4879725085911
scalar Network.dyn_peer[9] 	lookupTimeSig:mean 	0.47441860465116
scalar Network.dyn_peer[9] 	lookupStabilitySig:mean 	0.4566260610902
scalar Network.dyn_peer[9] 	lookupHopsSig:mean 	4.3521594684385
scalar Network.dyn_peer[10] 	lookupTimeSig:mean 	0.45507692307692
scalar Network.dyn_peer[10] 	lookupStabilitySig:mean 	0.50264957262919
scalar Network.dyn_peer[10] 	lookupHopsSig:mean 	3.9846153846154
scalar Network.dyn_peer[11] 	lookupTimeSig:mean 	0.46089965397924
scalar Network.dyn_peer[11] 	lookupStabilitySig:mean 	0.48241061116585
scalar Network.dyn_peer[11] 	lookupHopsSig:mean 	4.1487889273356
scalar Network.dyn_peer[12] 	lookupTimeSig:mean 	0.45371621621622
scalar Network.dyn_peer[12] 	lookupStabilitySig:mean 	0.50103228224592
scalar Network.dyn_peer[12] 	lookupHopsSig:mean 	3.9932432432432
scalar Network.dyn_peer[13] 	lookupTimeSig:mean 	0.47733333333333
scalar Network.dyn_peer[13] 	lookupStabilitySig:mean 	0.46453703699013
scalar Network.dyn_peer[13] 	lookupHopsSig:mean 	4.2866666666667
scalar Network.dyn_peer[14] 	lookupTimeSig:mean 	0.46622950819672
scalar Network.dyn_peer[14] 	lookupStabilitySig:mean 	0.46780510017129
scalar Network.dyn_peer[14] 	lookupHopsSig:mean 	4.2590163934426
scalar Network.dyn_peer[15] 	lookupTimeSig:mean 	0.46410256410256
scalar Network.dyn_peer[15] 	lookupStabilitySig:mean 	0.48192663815541
scalar Network.dyn_peer[15] 	lookupHopsSig:mean 	4.1474358974359
scalar Network.dyn_peer[16] 	lookupTimeSig:mean 	0.47472924187726
scalar Network.dyn_peer[16] 	lookupStabilitySig:mean 	0.46545326914168
scalar Network.dyn_peer[16] 	lookupHopsSig:mean 	4.2779783393502
scalar Network.dyn_peer[17] 	lookupTimeSig:mean 	0.45606557377049
scalar Network.dyn_peer[17] 	lookupStabilitySig:mean 	0.49180327856638
scalar Network.dyn_peer[17] 	lookupHopsSig:mean 	4.0688524590164
scalar Network.dyn_peer[18] 	lookupTimeSig:mean 	0.46094276094276
scalar Network.dyn_peer[18] 	lookupStabilitySig:mean 	0.48924429476361
scalar Network.dyn_peer[18] 	lookupHopsSig:mean 	4.0875420875421
scalar Network.dyn_peer[19] 	lookupTimeSig:mean 	0.45860927152318
scalar Network.dyn_peer[19] 	lookupStabilitySig:mean 	0.48670897716718
scalar Network.dyn_peer[19] 	lookupHopsSig:mean 	4.1092715231788
scalar Network.dyn_peer[20] 	lookupTimeSig:mean 	0.44313725490196
scalar Network.dyn_peer[20] 	lookupStabilitySig:mean 	0.50585511981759
scalar Network.dyn_peer[20] 	lookupHopsSig:mean 	3.9542483660131
scalar Network.dyn_peer[21] 	lookupTimeSig:mean 	0.48628762541806
scalar Network.dyn_peer[21] 	lookupStabilitySig:mean 	0.44899665551839
scalar Network.dyn_peer[21] 	lookupHopsSig:mean 	4.4080267558528
scalar Network.dyn_peer[22] 	lookupTimeSig:mean 	0.4434375
scalar Network.dyn_peer[22] 	lookupStabilitySig:mean 	0.50104166655801
scalar Network.dyn_peer[22] 	lookupHopsSig:mean 	3.996875
scalar Network.dyn_peer[23] 	lookupTimeSig:mean 	0.4806779661017
scalar Network.dyn_peer[23] 	lookupStabilitySig:mean 	0.46082862514561
scalar Network.dyn_peer[23] 	lookupHopsSig:mean 	4.3152542372881
scalar Network.dyn_peer[24] 	lookupTimeSig:mean 	0.46584507042254
scalar Network.dyn_peer[24] 	lookupStabilitySig:mean 	0.47579225352113
scalar Network.dyn_peer[24] 	lookupHopsSig:mean 	4.193661971831
scalar Network.dyn_peer[25] 	lookupTimeSig:mean 	0.45258064516129
scalar Network.dyn_peer[25] 	lookupStabilitySig:mean 	0.49238351254213
scalar Network.dyn_peer[25] 	lookupHopsSig:mean 	4.0612903225806
scalar Network.dyn_peer[26] 	lookupTimeSig:mean 	0.45947712418301
scalar Network.dyn_peer[26] 	lookupStabilitySig:mean 	0.49087690622881
scalar Network.dyn_peer[26] 	lookupHopsSig:mean 	4.0751633986928
scalar Network.dyn_peer[27] 	lookupTimeSig:mean 	0.45709570957096
scalar Network.dyn_peer[27] 	lookupStabilitySig:mean 	0.48675284183065
scalar Network.dyn_peer[27] 	lookupHopsSig:mean 	4.1089108910891
scalar Network.dyn_peer[28] 	lookupTimeSig:mean 	0.48801369863014
scalar Network.dyn_peer[28] 	lookupStabilitySig:mean 	0.45024733633211
scalar Network.dyn_peer[28] 	lookupHopsSig:mean 	4.4006849315068
scalar Network.dyn_peer[29] 	lookupTimeSig:mean 	0.4377245508982
scalar Network.dyn_peer[29] 	lookupStabilitySig:mean 	0.51837990669433
scalar Network.dyn_peer[29] 	lookupHopsSig:mean 	3.8592814371257
scalar Network.dyn_peer[30] 	lookupTimeSig:mean 	0.45956112852665
scalar Network.dyn_peer[30] 	lookupStabilitySig:mean 	0.48746081504702
scalar Network.dyn_peer[30] 	lookupHopsSig:mean 	4.1003134796238
scalar Network.dyn_peer[31] 	lookupTimeSig:mean 	0.47148148148148
scalar Network.dyn_peer[31] 	lookupStabilitySig:mean 	0.47026748963528
scalar Network.dyn_peer[31] 	lookupHopsSig:mean 	4.2407407407407
