version 2
run Stability-136-20130525-17:51:15-19193
attr configname Stability
attr datetime 20130525-17:51:15
attr experiment Stability
attr inifile omnetpp.ini
attr iterationvars $0=1e-7
attr iterationvars2 "$0=1e-7, $repetition=6"
attr measurement $0=1e-7
attr network Network
attr processid 19193
attr repetition 6
attr replication #6
attr resultdir results
attr runnumber 136
attr seedset 136

scalar Network.dyn_peer[0] 	lookupTimeSig:mean 	0.45691318327974
scalar Network.dyn_peer[0] 	lookupStabilitySig:mean 	0.48097534827481
scalar Network.dyn_peer[0] 	lookupHopsSig:mean 	4.1543408360129
scalar Network.dyn_peer[1] 	lookupTimeSig:mean 	0.46923076923077
scalar Network.dyn_peer[1] 	lookupStabilitySig:mean 	0.47138610173229
scalar Network.dyn_peer[1] 	lookupHopsSig:mean 	4.2307692307692
scalar Network.dyn_peer[2] 	lookupTimeSig:mean 	0.46408450704225
scalar Network.dyn_peer[2] 	lookupStabilitySig:mean 	0.48635563380282
scalar Network.dyn_peer[2] 	lookupHopsSig:mean 	4.1091549295775
scalar Network.dyn_peer[3] 	lookupTimeSig:mean 	0.46757679180887
scalar Network.dyn_peer[3] 	lookupStabilitySig:mean 	0.47852673485824
scalar Network.dyn_peer[3] 	lookupHopsSig:mean 	4.1740614334471
scalar Network.dyn_peer[4] 	lookupTimeSig:mean 	0.50105263157895
scalar Network.dyn_peer[4] 	lookupStabilitySig:mean 	0.43055555548584
scalar Network.dyn_peer[4] 	lookupHopsSig:mean 	4.5578947368421
scalar Network.dyn_peer[5] 	lookupTimeSig:mean 	0.46896551724138
scalar Network.dyn_peer[5] 	lookupStabilitySig:mean 	0.47892720305994
scalar Network.dyn_peer[5] 	lookupHopsSig:mean 	4.1692789968652
scalar Network.dyn_peer[6] 	lookupTimeSig:mean 	0.44451410658307
scalar Network.dyn_peer[6] 	lookupStabilitySig:mean 	0.50557297108502
scalar Network.dyn_peer[6] 	lookupHopsSig:mean 	3.9561128526646
scalar Network.dyn_peer[7] 	lookupTimeSig:mean 	0.52992700729927
scalar Network.dyn_peer[7] 	lookupStabilitySig:mean 	0.38356650441232
scalar Network.dyn_peer[7] 	lookupHopsSig:mean 	4.9379562043796
scalar Network.dyn_peer[8] 	lookupTimeSig:mean 	0.47838709677419
scalar Network.dyn_peer[8] 	lookupStabilitySig:mean 	0.46411290322581
scalar Network.dyn_peer[8] 	lookupHopsSig:mean 	4.2870967741935
scalar Network.dyn_peer[9] 	lookupTimeSig:mean 	0.40776119402985
scalar Network.dyn_peer[9] 	lookupStabilitySig:mean 	0.55049751240816
scalar Network.dyn_peer[9] 	lookupHopsSig:mean 	3.5970149253731
scalar Network.dyn_peer[10] 	lookupTimeSig:mean 	0.4789644012945
scalar Network.dyn_peer[10] 	lookupStabilitySig:mean 	0.46350233724588
scalar Network.dyn_peer[10] 	lookupHopsSig:mean 	4.294498381877
scalar Network.dyn_peer[11] 	lookupTimeSig:mean 	0.46505190311419
scalar Network.dyn_peer[11] 	lookupStabilitySig:mean 	0.4727508650519
scalar Network.dyn_peer[11] 	lookupHopsSig:mean 	4.2179930795848
scalar Network.dyn_peer[12] 	lookupTimeSig:mean 	0.4822695035461
scalar Network.dyn_peer[12] 	lookupStabilitySig:mean 	0.45124113475177
scalar Network.dyn_peer[12] 	lookupHopsSig:mean 	4.3900709219858
scalar Network.dyn_peer[13] 	lookupTimeSig:mean 	0.49137931034483
scalar Network.dyn_peer[13] 	lookupStabilitySig:mean 	0.44176245203306
scalar Network.dyn_peer[13] 	lookupHopsSig:mean 	4.4689655172414
scalar Network.dyn_peer[14] 	lookupTimeSig:mean 	0.47418300653595
scalar Network.dyn_peer[14] 	lookupStabilitySig:mean 	0.4621459693934
scalar Network.dyn_peer[14] 	lookupHopsSig:mean 	4.3071895424837
scalar Network.dyn_peer[15] 	lookupTimeSig:mean 	0.43577981651376
scalar Network.dyn_peer[15] 	lookupStabilitySig:mean 	0.52153414870621
scalar Network.dyn_peer[15] 	lookupHopsSig:mean 	3.8318042813456
scalar Network.dyn_peer[16] 	lookupTimeSig:mean 	0.50035335689046
scalar Network.dyn_peer[16] 	lookupStabilitySig:mean 	0.4406164115025
scalar Network.dyn_peer[16] 	lookupHopsSig:mean 	4.4805653710247
scalar Network.dyn_peer[17] 	lookupTimeSig:mean 	0.4679180887372
scalar Network.dyn_peer[17] 	lookupStabilitySig:mean 	0.47563519133032
scalar Network.dyn_peer[17] 	lookupHopsSig:mean 	4.2013651877133
scalar Network.dyn_peer[18] 	lookupTimeSig:mean 	0.50553633217993
scalar Network.dyn_peer[18] 	lookupStabilitySig:mean 	0.43050749708212
scalar Network.dyn_peer[18] 	lookupHopsSig:mean 	4.560553633218
scalar Network.dyn_peer[19] 	lookupTimeSig:mean 	0.43283582089552
scalar Network.dyn_peer[19] 	lookupStabilitySig:mean 	0.52276119394089
scalar Network.dyn_peer[19] 	lookupHopsSig:mean 	3.8208955223881
scalar Network.dyn_peer[20] 	lookupTimeSig:mean 	0.4872852233677
scalar Network.dyn_peer[20] 	lookupStabilitySig:mean 	0.4474513172284
scalar Network.dyn_peer[20] 	lookupHopsSig:mean 	4.4226804123711
scalar Network.dyn_peer[21] 	lookupTimeSig:mean 	0.48827586206897
scalar Network.dyn_peer[21] 	lookupStabilitySig:mean 	0.45301724125085
scalar Network.dyn_peer[21] 	lookupHopsSig:mean 	4.3793103448276
scalar Network.dyn_peer[22] 	lookupTimeSig:mean 	0.44368600682594
scalar Network.dyn_peer[22] 	lookupStabilitySig:mean 	0.50113765615652
scalar Network.dyn_peer[22] 	lookupHopsSig:mean 	4.0034129692833
scalar Network.dyn_peer[23] 	lookupTimeSig:mean 	0.42467948717949
scalar Network.dyn_peer[23] 	lookupStabilitySig:mean 	0.53766025641026
scalar Network.dyn_peer[23] 	lookupHopsSig:mean 	3.6987179487179
scalar Network.dyn_peer[24] 	lookupTimeSig:mean 	0.50324909747292
scalar Network.dyn_peer[24] 	lookupStabilitySig:mean 	0.42794825507846
scalar Network.dyn_peer[24] 	lookupHopsSig:mean 	4.5776173285199
scalar Network.dyn_peer[25] 	lookupTimeSig:mean 	0.49239130434783
scalar Network.dyn_peer[25] 	lookupStabilitySig:mean 	0.44228059571722
scalar Network.dyn_peer[25] 	lookupHopsSig:mean 	4.463768115942
scalar Network.dyn_peer[26] 	lookupTimeSig:mean 	0.46655629139073
scalar Network.dyn_peer[26] 	lookupStabilitySig:mean 	0.47737306839978
scalar Network.dyn_peer[26] 	lookupHopsSig:mean 	4.182119205298
scalar Network.dyn_peer[27] 	lookupTimeSig:mean 	0.44018404907975
scalar Network.dyn_peer[27] 	lookupStabilitySig:mean 	0.51597648237381
scalar Network.dyn_peer[27] 	lookupHopsSig:mean 	3.8803680981595
scalar Network.dyn_peer[28] 	lookupTimeSig:mean 	0.46729559748428
scalar Network.dyn_peer[28] 	lookupStabilitySig:mean 	0.4828791055102
scalar Network.dyn_peer[28] 	lookupHopsSig:mean 	4.1383647798742
scalar Network.dyn_peer[29] 	lookupTimeSig:mean 	0.47379310344828
scalar Network.dyn_peer[29] 	lookupStabilitySig:mean 	0.47198275862069
scalar Network.dyn_peer[29] 	lookupHopsSig:mean 	4.2241379310345
scalar Network.dyn_peer[30] 	lookupTimeSig:mean 	0.48448275862069
scalar Network.dyn_peer[30] 	lookupStabilitySig:mean 	0.45402298842011
scalar Network.dyn_peer[30] 	lookupHopsSig:mean 	4.3724137931034
scalar Network.dyn_peer[31] 	lookupTimeSig:mean 	0.45551948051948
scalar Network.dyn_peer[31] 	lookupStabilitySig:mean 	0.48944805194805
scalar Network.dyn_peer[31] 	lookupHopsSig:mean 	4.0844155844156
