version 2
run Stability-82-20130525-17:47:32-19193
attr configname Stability
attr datetime 20130525-17:47:32
attr experiment Stability
attr inifile omnetpp.ini
attr iterationvars $0=1e-2
attr iterationvars2 "$0=1e-2, $repetition=2"
attr measurement $0=1e-2
attr network Network
attr processid 19193
attr repetition 2
attr replication #2
attr resultdir results
attr runnumber 82
attr seedset 82

scalar Network.dyn_peer[0] 	lookupTimeSig:mean 	0.45454545454545
scalar Network.dyn_peer[0] 	lookupStabilitySig:mean 	0.49359668106712
scalar Network.dyn_peer[0] 	lookupHopsSig:mean 	4.0551948051948
scalar Network.dyn_peer[1] 	lookupTimeSig:mean 	0.46891891891892
scalar Network.dyn_peer[1] 	lookupStabilitySig:mean 	0.47264451946358
scalar Network.dyn_peer[1] 	lookupHopsSig:mean 	4.222972972973
scalar Network.dyn_peer[2] 	lookupTimeSig:mean 	0.45794701986755
scalar Network.dyn_peer[2] 	lookupStabilitySig:mean 	0.48854856508852
scalar Network.dyn_peer[2] 	lookupHopsSig:mean 	4.0927152317881
scalar Network.dyn_peer[3] 	lookupTimeSig:mean 	0.4831541218638
scalar Network.dyn_peer[3] 	lookupStabilitySig:mean 	0.45390282755577
scalar Network.dyn_peer[3] 	lookupHopsSig:mean 	4.3691756272401
scalar Network.dyn_peer[4] 	lookupTimeSig:mean 	0.43777777777778
scalar Network.dyn_peer[4] 	lookupStabilitySig:mean 	0.51604938270554
scalar Network.dyn_peer[4] 	lookupHopsSig:mean 	3.8730158730159
scalar Network.dyn_peer[5] 	lookupTimeSig:mean 	0.49421221864952
scalar Network.dyn_peer[5] 	lookupStabilitySig:mean 	0.44413183279743
scalar Network.dyn_peer[5] 	lookupHopsSig:mean 	4.4469453376206
scalar Network.dyn_peer[6] 	lookupTimeSig:mean 	0.47323943661972
scalar Network.dyn_peer[6] 	lookupStabilitySig:mean 	0.47227112665563
scalar Network.dyn_peer[6] 	lookupHopsSig:mean 	4.2253521126761
scalar Network.dyn_peer[7] 	lookupTimeSig:mean 	0.44564564564565
scalar Network.dyn_peer[7] 	lookupStabilitySig:mean 	0.50888388382422
scalar Network.dyn_peer[7] 	lookupHopsSig:mean 	3.9309309309309
scalar Network.dyn_peer[8] 	lookupTimeSig:mean 	0.45612903225806
scalar Network.dyn_peer[8] 	lookupStabilitySig:mean 	0.496818996341
scalar Network.dyn_peer[8] 	lookupHopsSig:mean 	4.0290322580645
scalar Network.dyn_peer[9] 	lookupTimeSig:mean 	0.45172413793103
scalar Network.dyn_peer[9] 	lookupStabilitySig:mean 	0.49861111103975
scalar Network.dyn_peer[9] 	lookupHopsSig:mean 	4.0137931034483
scalar Network.dyn_peer[10] 	lookupTimeSig:mean 	0.49547038327526
scalar Network.dyn_peer[10] 	lookupStabilitySig:mean 	0.43849206347187
scalar Network.dyn_peer[10] 	lookupHopsSig:mean 	4.4947735191638
scalar Network.dyn_peer[11] 	lookupTimeSig:mean 	0.45319865319865
scalar Network.dyn_peer[11] 	lookupStabilitySig:mean 	0.49789562289562
scalar Network.dyn_peer[11] 	lookupHopsSig:mean 	4.016835016835
scalar Network.dyn_peer[12] 	lookupTimeSig:mean 	0.47451612903226
scalar Network.dyn_peer[12] 	lookupStabilitySig:mean 	0.46747311827156
scalar Network.dyn_peer[12] 	lookupHopsSig:mean 	4.2612903225806
scalar Network.dyn_peer[13] 	lookupTimeSig:mean 	0.46084142394822
scalar Network.dyn_peer[13] 	lookupStabilitySig:mean 	0.4919992806842
scalar Network.dyn_peer[13] 	lookupHopsSig:mean 	4.0679611650485
scalar Network.dyn_peer[14] 	lookupTimeSig:mean 	0.44856230031949
scalar Network.dyn_peer[14] 	lookupStabilitySig:mean 	0.50803159372494
scalar Network.dyn_peer[14] 	lookupHopsSig:mean 	3.9392971246006
scalar Network.dyn_peer[15] 	lookupTimeSig:mean 	0.46208053691275
scalar Network.dyn_peer[15] 	lookupStabilitySig:mean 	0.48364093959732
scalar Network.dyn_peer[15] 	lookupHopsSig:mean 	4.1308724832215
scalar Network.dyn_peer[16] 	lookupTimeSig:mean 	0.46737160120846
scalar Network.dyn_peer[16] 	lookupStabilitySig:mean 	0.47960725075529
scalar Network.dyn_peer[16] 	lookupHopsSig:mean 	4.1631419939577
scalar Network.dyn_peer[17] 	lookupTimeSig:mean 	0.44464285714286
scalar Network.dyn_peer[17] 	lookupStabilitySig:mean 	0.50669642861578
scalar Network.dyn_peer[17] 	lookupHopsSig:mean 	3.952380952381
scalar Network.dyn_peer[18] 	lookupTimeSig:mean 	0.43216560509554
scalar Network.dyn_peer[18] 	lookupStabilitySig:mean 	0.5240622788288
scalar Network.dyn_peer[18] 	lookupHopsSig:mean 	3.8089171974522
scalar Network.dyn_peer[19] 	lookupTimeSig:mean 	0.44932432432432
scalar Network.dyn_peer[19] 	lookupStabilitySig:mean 	0.49784159156922
scalar Network.dyn_peer[19] 	lookupHopsSig:mean 	4.0202702702703
scalar Network.dyn_peer[20] 	lookupTimeSig:mean 	0.49245901639344
scalar Network.dyn_peer[20] 	lookupStabilitySig:mean 	0.44713114754098
scalar Network.dyn_peer[20] 	lookupHopsSig:mean 	4.4229508196721
scalar Network.dyn_peer[21] 	lookupTimeSig:mean 	0.47741935483871
scalar Network.dyn_peer[21] 	lookupStabilitySig:mean 	0.46523297486767
scalar Network.dyn_peer[21] 	lookupHopsSig:mean 	4.2806451612903
scalar Network.dyn_peer[22] 	lookupTimeSig:mean 	0.4840830449827
scalar Network.dyn_peer[22] 	lookupStabilitySig:mean 	0.44929834653762
scalar Network.dyn_peer[22] 	lookupHopsSig:mean 	4.4221453287197
scalar Network.dyn_peer[23] 	lookupTimeSig:mean 	0.49246575342466
scalar Network.dyn_peer[23] 	lookupStabilitySig:mean 	0.44054413995106
scalar Network.dyn_peer[23] 	lookupHopsSig:mean 	4.4794520547945
scalar Network.dyn_peer[24] 	lookupTimeSig:mean 	0.47142857142857
scalar Network.dyn_peer[24] 	lookupStabilitySig:mean 	0.46752806812629
scalar Network.dyn_peer[24] 	lookupHopsSig:mean 	4.2613240418118
scalar Network.dyn_peer[25] 	lookupTimeSig:mean 	0.43227848101266
scalar Network.dyn_peer[25] 	lookupStabilitySig:mean 	0.52254746835443
scalar Network.dyn_peer[25] 	lookupHopsSig:mean 	3.8196202531646
scalar Network.dyn_peer[26] 	lookupTimeSig:mean 	0.48316831683168
scalar Network.dyn_peer[26] 	lookupStabilitySig:mean 	0.45906673991444
scalar Network.dyn_peer[26] 	lookupHopsSig:mean 	4.3300330033003
scalar Network.dyn_peer[27] 	lookupTimeSig:mean 	0.47086092715232
scalar Network.dyn_peer[27] 	lookupStabilitySig:mean 	0.47774098601365
scalar Network.dyn_peer[27] 	lookupHopsSig:mean 	4.1788079470199
scalar Network.dyn_peer[28] 	lookupTimeSig:mean 	0.47544483985765
scalar Network.dyn_peer[28] 	lookupStabilitySig:mean 	0.46110122568667
scalar Network.dyn_peer[28] 	lookupHopsSig:mean 	4.3167259786477
scalar Network.dyn_peer[29] 	lookupTimeSig:mean 	0.48297872340426
scalar Network.dyn_peer[29] 	lookupStabilitySig:mean 	0.45606776976839
scalar Network.dyn_peer[29] 	lookupHopsSig:mean 	4.354609929078
scalar Network.dyn_peer[30] 	lookupTimeSig:mean 	0.46829268292683
scalar Network.dyn_peer[30] 	lookupStabilitySig:mean 	0.47048006193771
scalar Network.dyn_peer[30] 	lookupHopsSig:mean 	4.2369337979094
scalar Network.dyn_peer[31] 	lookupTimeSig:mean 	0.49484536082474
scalar Network.dyn_peer[31] 	lookupStabilitySig:mean 	0.44158075601375
scalar Network.dyn_peer[31] 	lookupHopsSig:mean 	4.46735395189
