version 2
run Stability-67-20130525-17:46:30-19193
attr configname Stability
attr datetime 20130525-17:46:30
attr experiment Stability
attr inifile omnetpp.ini
attr iterationvars $0=1e0
attr iterationvars2 "$0=1e0, $repetition=7"
attr measurement $0=1e0
attr network Network
attr processid 19193
attr repetition 7
attr replication #7
attr resultdir results
attr runnumber 67
attr seedset 67

scalar Network.dyn_peer[0] 	lookupTimeSig:mean 	0.43944099378882
scalar Network.dyn_peer[0] 	lookupStabilitySig:mean 	0.5192374050247
scalar Network.dyn_peer[0] 	lookupHopsSig:mean 	3.8478260869565
scalar Network.dyn_peer[1] 	lookupTimeSig:mean 	0.45679442508711
scalar Network.dyn_peer[1] 	lookupStabilitySig:mean 	0.48736933797909
scalar Network.dyn_peer[1] 	lookupHopsSig:mean 	4.1010452961672
scalar Network.dyn_peer[2] 	lookupTimeSig:mean 	0.46850649350649
scalar Network.dyn_peer[2] 	lookupStabilitySig:mean 	0.46969696966472
scalar Network.dyn_peer[2] 	lookupHopsSig:mean 	4.2435064935065
scalar Network.dyn_peer[3] 	lookupTimeSig:mean 	0.47091503267974
scalar Network.dyn_peer[3] 	lookupStabilitySig:mean 	0.47485475656059
scalar Network.dyn_peer[3] 	lookupHopsSig:mean 	4.2058823529412
scalar Network.dyn_peer[4] 	lookupTimeSig:mean 	0.47045454545455
scalar Network.dyn_peer[4] 	lookupStabilitySig:mean 	0.47037337662338
scalar Network.dyn_peer[4] 	lookupHopsSig:mean 	4.237012987013
scalar Network.dyn_peer[5] 	lookupTimeSig:mean 	0.45667752442997
scalar Network.dyn_peer[5] 	lookupStabilitySig:mean 	0.48746833144551
scalar Network.dyn_peer[5] 	lookupHopsSig:mean 	4.1042345276873
scalar Network.dyn_peer[6] 	lookupTimeSig:mean 	0.47491408934708
scalar Network.dyn_peer[6] 	lookupStabilitySig:mean 	0.47451317289851
scalar Network.dyn_peer[6] 	lookupHopsSig:mean 	4.2061855670103
scalar Network.dyn_peer[7] 	lookupTimeSig:mean 	0.46836734693878
scalar Network.dyn_peer[7] 	lookupStabilitySig:mean 	0.47066326530612
scalar Network.dyn_peer[7] 	lookupHopsSig:mean 	4.234693877551
scalar Network.dyn_peer[8] 	lookupTimeSig:mean 	0.4740350877193
scalar Network.dyn_peer[8] 	lookupStabilitySig:mean 	0.45692007792623
scalar Network.dyn_peer[8] 	lookupHopsSig:mean 	4.3473684210526
scalar Network.dyn_peer[9] 	lookupTimeSig:mean 	0.49475524475524
scalar Network.dyn_peer[9] 	lookupStabilitySig:mean 	0.44449300699301
scalar Network.dyn_peer[9] 	lookupHopsSig:mean 	4.4440559440559
scalar Network.dyn_peer[10] 	lookupTimeSig:mean 	0.49463087248322
scalar Network.dyn_peer[10] 	lookupStabilitySig:mean 	0.43675428783934
scalar Network.dyn_peer[10] 	lookupHopsSig:mean 	4.506711409396
scalar Network.dyn_peer[11] 	lookupTimeSig:mean 	0.45676567656766
scalar Network.dyn_peer[11] 	lookupStabilitySig:mean 	0.4856985698242
scalar Network.dyn_peer[11] 	lookupHopsSig:mean 	4.1155115511551
scalar Network.dyn_peer[12] 	lookupTimeSig:mean 	0.46168831168831
scalar Network.dyn_peer[12] 	lookupStabilitySig:mean 	0.49666305892653
scalar Network.dyn_peer[12] 	lookupHopsSig:mean 	4.0357142857143
scalar Network.dyn_peer[13] 	lookupTimeSig:mean 	0.46624605678233
scalar Network.dyn_peer[13] 	lookupStabilitySig:mean 	0.47875043803867
scalar Network.dyn_peer[13] 	lookupHopsSig:mean 	4.1735015772871
scalar Network.dyn_peer[14] 	lookupTimeSig:mean 	0.4969387755102
scalar Network.dyn_peer[14] 	lookupStabilitySig:mean 	0.44113756617417
scalar Network.dyn_peer[14] 	lookupHopsSig:mean 	4.4761904761905
scalar Network.dyn_peer[15] 	lookupTimeSig:mean 	0.46974522292994
scalar Network.dyn_peer[15] 	lookupStabilitySig:mean 	0.47686659587417
scalar Network.dyn_peer[15] 	lookupHopsSig:mean 	4.187898089172
scalar Network.dyn_peer[16] 	lookupTimeSig:mean 	0.45162337662338
scalar Network.dyn_peer[16] 	lookupStabilitySig:mean 	0.49594155844156
scalar Network.dyn_peer[16] 	lookupHopsSig:mean 	4.0324675324675
scalar Network.dyn_peer[17] 	lookupTimeSig:mean 	0.47171052631579
scalar Network.dyn_peer[17] 	lookupStabilitySig:mean 	0.47080592105263
scalar Network.dyn_peer[17] 	lookupHopsSig:mean 	4.2335526315789
scalar Network.dyn_peer[18] 	lookupTimeSig:mean 	0.46959459459459
scalar Network.dyn_peer[18] 	lookupStabilitySig:mean 	0.47597597597318
scalar Network.dyn_peer[18] 	lookupHopsSig:mean 	4.1925675675676
scalar Network.dyn_peer[19] 	lookupTimeSig:mean 	0.45823170731707
scalar Network.dyn_peer[19] 	lookupStabilitySig:mean 	0.4943682249272
scalar Network.dyn_peer[19] 	lookupHopsSig:mean 	4.0457317073171
scalar Network.dyn_peer[20] 	lookupTimeSig:mean 	0.47862068965517
scalar Network.dyn_peer[20] 	lookupStabilitySig:mean 	0.46360153234724
scalar Network.dyn_peer[20] 	lookupHopsSig:mean 	4.3034482758621
scalar Network.dyn_peer[21] 	lookupTimeSig:mean 	0.45639344262295
scalar Network.dyn_peer[21] 	lookupStabilitySig:mean 	0.48893442622951
scalar Network.dyn_peer[21] 	lookupHopsSig:mean 	4.0885245901639
scalar Network.dyn_peer[22] 	lookupTimeSig:mean 	0.49683098591549
scalar Network.dyn_peer[22] 	lookupStabilitySig:mean 	0.43520148659886
scalar Network.dyn_peer[22] 	lookupHopsSig:mean 	4.5211267605634
scalar Network.dyn_peer[23] 	lookupTimeSig:mean 	0.49965753424658
scalar Network.dyn_peer[23] 	lookupStabilitySig:mean 	0.43407534246575
scalar Network.dyn_peer[23] 	lookupHopsSig:mean 	4.527397260274
scalar Network.dyn_peer[24] 	lookupTimeSig:mean 	0.4797153024911
scalar Network.dyn_peer[24] 	lookupStabilitySig:mean 	0.45917358639189
scalar Network.dyn_peer[24] 	lookupHopsSig:mean 	4.3274021352313
scalar Network.dyn_peer[25] 	lookupTimeSig:mean 	0.44267100977199
scalar Network.dyn_peer[25] 	lookupStabilitySig:mean 	0.51397937021737
scalar Network.dyn_peer[25] 	lookupHopsSig:mean 	3.8892508143322
scalar Network.dyn_peer[26] 	lookupTimeSig:mean 	0.47108843537415
scalar Network.dyn_peer[26] 	lookupStabilitySig:mean 	0.46952947832289
scalar Network.dyn_peer[26] 	lookupHopsSig:mean 	4.2482993197279
scalar Network.dyn_peer[27] 	lookupTimeSig:mean 	0.46579804560261
scalar Network.dyn_peer[27] 	lookupStabilitySig:mean 	0.48077271072989
scalar Network.dyn_peer[27] 	lookupHopsSig:mean 	4.1563517915309
scalar Network.dyn_peer[28] 	lookupTimeSig:mean 	0.4936877076412
scalar Network.dyn_peer[28] 	lookupStabilitySig:mean 	0.44006090801816
scalar Network.dyn_peer[28] 	lookupHopsSig:mean 	4.4817275747508
scalar Network.dyn_peer[29] 	lookupTimeSig:mean 	0.47003367003367
scalar Network.dyn_peer[29] 	lookupStabilitySig:mean 	0.47138047138047
scalar Network.dyn_peer[29] 	lookupHopsSig:mean 	4.2289562289562
scalar Network.dyn_peer[30] 	lookupTimeSig:mean 	0.44421364985163
scalar Network.dyn_peer[30] 	lookupStabilitySig:mean 	0.51038575667656
scalar Network.dyn_peer[30] 	lookupHopsSig:mean 	3.9169139465875
scalar Network.dyn_peer[31] 	lookupTimeSig:mean 	0.50338983050847
scalar Network.dyn_peer[31] 	lookupStabilitySig:mean 	0.42528248560631
scalar Network.dyn_peer[31] 	lookupHopsSig:mean 	4.6067796610169
