version 2
run Stability-75-20130525-17:47:03-19193
attr configname Stability
attr datetime 20130525-17:47:03
attr experiment Stability
attr inifile omnetpp.ini
attr iterationvars $0=1e-1
attr iterationvars2 "$0=1e-1, $repetition=5"
attr measurement $0=1e-1
attr network Network
attr processid 19193
attr repetition 5
attr replication #5
attr resultdir results
attr runnumber 75
attr seedset 75

scalar Network.dyn_peer[0] 	lookupTimeSig:mean 	0.49896907216495
scalar Network.dyn_peer[0] 	lookupStabilitySig:mean 	0.43881252356821
scalar Network.dyn_peer[0] 	lookupHopsSig:mean 	4.4982817869416
scalar Network.dyn_peer[1] 	lookupTimeSig:mean 	0.44728915662651
scalar Network.dyn_peer[1] 	lookupStabilitySig:mean 	0.49736445783133
scalar Network.dyn_peer[1] 	lookupHopsSig:mean 	4.0210843373494
scalar Network.dyn_peer[2] 	lookupTimeSig:mean 	0.47532051282051
scalar Network.dyn_peer[2] 	lookupStabilitySig:mean 	0.47667378913134
scalar Network.dyn_peer[2] 	lookupHopsSig:mean 	4.1891025641026
scalar Network.dyn_peer[3] 	lookupTimeSig:mean 	0.48803986710963
scalar Network.dyn_peer[3] 	lookupStabilitySig:mean 	0.44315245470335
scalar Network.dyn_peer[3] 	lookupHopsSig:mean 	4.4584717607973
scalar Network.dyn_peer[4] 	lookupTimeSig:mean 	0.46524822695035
scalar Network.dyn_peer[4] 	lookupStabilitySig:mean 	0.47601457830545
scalar Network.dyn_peer[4] 	lookupHopsSig:mean 	4.1950354609929
scalar Network.dyn_peer[5] 	lookupTimeSig:mean 	0.45454545454545
scalar Network.dyn_peer[5] 	lookupStabilitySig:mean 	0.49516718909378
scalar Network.dyn_peer[5] 	lookupHopsSig:mean 	4.0407523510972
scalar Network.dyn_peer[6] 	lookupTimeSig:mean 	0.46943521594684
scalar Network.dyn_peer[6] 	lookupStabilitySig:mean 	0.47443706163536
scalar Network.dyn_peer[6] 	lookupHopsSig:mean 	4.2093023255814
scalar Network.dyn_peer[7] 	lookupTimeSig:mean 	0.44662379421222
scalar Network.dyn_peer[7] 	lookupStabilitySig:mean 	0.50803858511318
scalar Network.dyn_peer[7] 	lookupHopsSig:mean 	3.9389067524116
scalar Network.dyn_peer[8] 	lookupTimeSig:mean 	0.46689419795222
scalar Network.dyn_peer[8] 	lookupStabilitySig:mean 	0.47672544554537
scalar Network.dyn_peer[8] 	lookupHopsSig:mean 	4.1877133105802
scalar Network.dyn_peer[9] 	lookupTimeSig:mean 	0.47942238267148
scalar Network.dyn_peer[9] 	lookupStabilitySig:mean 	0.46104091448904
scalar Network.dyn_peer[9] 	lookupHopsSig:mean 	4.3140794223827
scalar Network.dyn_peer[10] 	lookupTimeSig:mean 	0.47543252595156
scalar Network.dyn_peer[10] 	lookupStabilitySig:mean 	0.46717608588583
scalar Network.dyn_peer[10] 	lookupHopsSig:mean 	4.2698961937716
scalar Network.dyn_peer[11] 	lookupTimeSig:mean 	0.45916398713826
scalar Network.dyn_peer[11] 	lookupStabilitySig:mean 	0.49017506243715
scalar Network.dyn_peer[11] 	lookupHopsSig:mean 	4.0836012861736
scalar Network.dyn_peer[12] 	lookupTimeSig:mean 	0.5063670411985
scalar Network.dyn_peer[12] 	lookupStabilitySig:mean 	0.42441739490751
scalar Network.dyn_peer[12] 	lookupHopsSig:mean 	4.6067415730337
scalar Network.dyn_peer[13] 	lookupTimeSig:mean 	0.4843853820598
scalar Network.dyn_peer[13] 	lookupStabilitySig:mean 	0.45810262089057
scalar Network.dyn_peer[13] 	lookupHopsSig:mean 	4.3355481727575
scalar Network.dyn_peer[14] 	lookupTimeSig:mean 	0.47301587301587
scalar Network.dyn_peer[14] 	lookupStabilitySig:mean 	0.47354497346613
scalar Network.dyn_peer[14] 	lookupHopsSig:mean 	4.215873015873
scalar Network.dyn_peer[15] 	lookupTimeSig:mean 	0.45665634674923
scalar Network.dyn_peer[15] 	lookupStabilitySig:mean 	0.49346405228502
scalar Network.dyn_peer[15] 	lookupHopsSig:mean 	4.0526315789474
scalar Network.dyn_peer[16] 	lookupTimeSig:mean 	0.48540925266904
scalar Network.dyn_peer[16] 	lookupStabilitySig:mean 	0.44998022924539
scalar Network.dyn_peer[16] 	lookupHopsSig:mean 	4.4056939501779
scalar Network.dyn_peer[17] 	lookupTimeSig:mean 	0.45223367697595
scalar Network.dyn_peer[17] 	lookupStabilitySig:mean 	0.49727949582015
scalar Network.dyn_peer[17] 	lookupHopsSig:mean 	4.0309278350515
scalar Network.dyn_peer[18] 	lookupTimeSig:mean 	0.485559566787
scalar Network.dyn_peer[18] 	lookupStabilitySig:mean 	0.44670076208317
scalar Network.dyn_peer[18] 	lookupHopsSig:mean 	4.4296028880866
scalar Network.dyn_peer[19] 	lookupTimeSig:mean 	0.49388489208633
scalar Network.dyn_peer[19] 	lookupStabilitySig:mean 	0.44284572369225
scalar Network.dyn_peer[19] 	lookupHopsSig:mean 	4.4712230215827
scalar Network.dyn_peer[20] 	lookupTimeSig:mean 	0.46760563380282
scalar Network.dyn_peer[20] 	lookupStabilitySig:mean 	0.47310250378411
scalar Network.dyn_peer[20] 	lookupHopsSig:mean 	4.2183098591549
scalar Network.dyn_peer[21] 	lookupTimeSig:mean 	0.48433333333333
scalar Network.dyn_peer[21] 	lookupStabilitySig:mean 	0.45865740736326
scalar Network.dyn_peer[21] 	lookupHopsSig:mean 	4.3333333333333
scalar Network.dyn_peer[22] 	lookupTimeSig:mean 	0.48210862619808
scalar Network.dyn_peer[22] 	lookupStabilitySig:mean 	0.46671991459668
scalar Network.dyn_peer[22] 	lookupHopsSig:mean 	4.2715654952077
scalar Network.dyn_peer[23] 	lookupTimeSig:mean 	0.4663430420712
scalar Network.dyn_peer[23] 	lookupStabilitySig:mean 	0.48206580365167
scalar Network.dyn_peer[23] 	lookupHopsSig:mean 	4.1456310679612
scalar Network.dyn_peer[24] 	lookupTimeSig:mean 	0.50579710144928
scalar Network.dyn_peer[24] 	lookupStabilitySig:mean 	0.42436594202899
scalar Network.dyn_peer[24] 	lookupHopsSig:mean 	4.6050724637681
scalar Network.dyn_peer[25] 	lookupTimeSig:mean 	0.48279220779221
scalar Network.dyn_peer[25] 	lookupStabilitySig:mean 	0.45914502161277
scalar Network.dyn_peer[25] 	lookupHopsSig:mean 	4.3279220779221
scalar Network.dyn_peer[26] 	lookupTimeSig:mean 	0.46587030716724
scalar Network.dyn_peer[26] 	lookupStabilitySig:mean 	0.47971179369367
scalar Network.dyn_peer[26] 	lookupHopsSig:mean 	4.1638225255973
scalar Network.dyn_peer[27] 	lookupTimeSig:mean 	0.47651006711409
scalar Network.dyn_peer[27] 	lookupStabilitySig:mean 	0.46457867254347
scalar Network.dyn_peer[27] 	lookupHopsSig:mean 	4.2852348993289
scalar Network.dyn_peer[28] 	lookupTimeSig:mean 	0.47717391304348
scalar Network.dyn_peer[28] 	lookupStabilitySig:mean 	0.45994363924947
scalar Network.dyn_peer[28] 	lookupHopsSig:mean 	4.3224637681159
scalar Network.dyn_peer[29] 	lookupTimeSig:mean 	0.46923076923077
scalar Network.dyn_peer[29] 	lookupStabilitySig:mean 	0.47366220735786
scalar Network.dyn_peer[29] 	lookupHopsSig:mean 	4.2107023411371
scalar Network.dyn_peer[30] 	lookupTimeSig:mean 	0.4872131147541
scalar Network.dyn_peer[30] 	lookupStabilitySig:mean 	0.44435336968449
scalar Network.dyn_peer[30] 	lookupHopsSig:mean 	4.4491803278689
scalar Network.dyn_peer[31] 	lookupTimeSig:mean 	0.44954407294833
scalar Network.dyn_peer[31] 	lookupStabilitySig:mean 	0.50325059098132
scalar Network.dyn_peer[31] 	lookupHopsSig:mean 	3.9756838905775
