version 2
run Stability-131-20130525-17:50:54-19193
attr configname Stability
attr datetime 20130525-17:50:54
attr experiment Stability
attr inifile omnetpp.ini
attr iterationvars $0=1e-7
attr iterationvars2 "$0=1e-7, $repetition=1"
attr measurement $0=1e-7
attr network Network
attr processid 19193
attr repetition 1
attr replication #1
attr resultdir results
attr runnumber 131
attr seedset 131

scalar Network.dyn_peer[0] 	lookupTimeSig:mean 	0.4864768683274
scalar Network.dyn_peer[0] 	lookupStabilitySig:mean 	0.44731119015251
scalar Network.dyn_peer[0] 	lookupHopsSig:mean 	4.423487544484
scalar Network.dyn_peer[1] 	lookupTimeSig:mean 	0.45068027210884
scalar Network.dyn_peer[1] 	lookupStabilitySig:mean 	0.49811035521379
scalar Network.dyn_peer[1] 	lookupHopsSig:mean 	4.0170068027211
scalar Network.dyn_peer[2] 	lookupTimeSig:mean 	0.46790540540541
scalar Network.dyn_peer[2] 	lookupStabilitySig:mean 	0.47367680178502
scalar Network.dyn_peer[2] 	lookupHopsSig:mean 	4.2128378378378
scalar Network.dyn_peer[3] 	lookupTimeSig:mean 	0.45196078431373
scalar Network.dyn_peer[3] 	lookupStabilitySig:mean 	0.50422113286514
scalar Network.dyn_peer[3] 	lookupHopsSig:mean 	3.9673202614379
scalar Network.dyn_peer[4] 	lookupTimeSig:mean 	0.5031914893617
scalar Network.dyn_peer[4] 	lookupStabilitySig:mean 	0.42430063041178
scalar Network.dyn_peer[4] 	lookupHopsSig:mean 	4.6063829787234
scalar Network.dyn_peer[5] 	lookupTimeSig:mean 	0.47152777777778
scalar Network.dyn_peer[5] 	lookupStabilitySig:mean 	0.47116126534012
scalar Network.dyn_peer[5] 	lookupHopsSig:mean 	4.2326388888889
scalar Network.dyn_peer[6] 	lookupTimeSig:mean 	0.45683229813665
scalar Network.dyn_peer[6] 	lookupStabilitySig:mean 	0.49736887508112
scalar Network.dyn_peer[6] 	lookupHopsSig:mean 	4.0217391304348
scalar Network.dyn_peer[7] 	lookupTimeSig:mean 	0.47391304347826
scalar Network.dyn_peer[7] 	lookupStabilitySig:mean 	0.46725195085624
scalar Network.dyn_peer[7] 	lookupHopsSig:mean 	4.2642140468227
scalar Network.dyn_peer[8] 	lookupTimeSig:mean 	0.47054794520548
scalar Network.dyn_peer[8] 	lookupStabilitySig:mean 	0.47916666663265
scalar Network.dyn_peer[8] 	lookupHopsSig:mean 	4.1678082191781
scalar Network.dyn_peer[9] 	lookupTimeSig:mean 	0.53115384615385
scalar Network.dyn_peer[9] 	lookupStabilitySig:mean 	0.38974358972449
scalar Network.dyn_peer[9] 	lookupHopsSig:mean 	4.8846153846154
scalar Network.dyn_peer[10] 	lookupTimeSig:mean 	0.47894736842105
scalar Network.dyn_peer[10] 	lookupStabilitySig:mean 	0.45721247562191
scalar Network.dyn_peer[10] 	lookupHopsSig:mean 	4.3438596491228
scalar Network.dyn_peer[11] 	lookupTimeSig:mean 	0.4841155234657
scalar Network.dyn_peer[11] 	lookupStabilitySig:mean 	0.45442238256389
scalar Network.dyn_peer[11] 	lookupHopsSig:mean 	4.3682310469314
scalar Network.dyn_peer[12] 	lookupTimeSig:mean 	0.50253623188406
scalar Network.dyn_peer[12] 	lookupStabilitySig:mean 	0.42592592577895
scalar Network.dyn_peer[12] 	lookupHopsSig:mean 	4.5978260869565
scalar Network.dyn_peer[13] 	lookupTimeSig:mean 	0.47687296416938
scalar Network.dyn_peer[13] 	lookupStabilitySig:mean 	0.4629026420099
scalar Network.dyn_peer[13] 	lookupHopsSig:mean 	4.299674267101
scalar Network.dyn_peer[14] 	lookupTimeSig:mean 	0.50372881355932
scalar Network.dyn_peer[14] 	lookupStabilitySig:mean 	0.42810734449807
scalar Network.dyn_peer[14] 	lookupHopsSig:mean 	4.5796610169492
scalar Network.dyn_peer[15] 	lookupTimeSig:mean 	0.45434083601286
scalar Network.dyn_peer[15] 	lookupStabilitySig:mean 	0.49839228293424
scalar Network.dyn_peer[15] 	lookupHopsSig:mean 	4.016077170418
scalar Network.dyn_peer[16] 	lookupTimeSig:mean 	0.51904761904762
scalar Network.dyn_peer[16] 	lookupStabilitySig:mean 	0.41091778590566
scalar Network.dyn_peer[16] 	lookupHopsSig:mean 	4.7142857142857
scalar Network.dyn_peer[17] 	lookupTimeSig:mean 	0.47350157728707
scalar Network.dyn_peer[17] 	lookupStabilitySig:mean 	0.47550823682866
scalar Network.dyn_peer[17] 	lookupHopsSig:mean 	4.2018927444795
scalar Network.dyn_peer[18] 	lookupTimeSig:mean 	0.43016393442623
scalar Network.dyn_peer[18] 	lookupStabilitySig:mean 	0.52436247719604
scalar Network.dyn_peer[18] 	lookupHopsSig:mean 	3.8065573770492
scalar Network.dyn_peer[19] 	lookupTimeSig:mean 	0.48184931506849
scalar Network.dyn_peer[19] 	lookupStabilitySig:mean 	0.45985540329185
scalar Network.dyn_peer[19] 	lookupHopsSig:mean 	4.3253424657534
scalar Network.dyn_peer[20] 	lookupTimeSig:mean 	0.42981927710843
scalar Network.dyn_peer[20] 	lookupStabilitySig:mean 	0.5316265060241
scalar Network.dyn_peer[20] 	lookupHopsSig:mean 	3.7469879518072
scalar Network.dyn_peer[21] 	lookupTimeSig:mean 	0.44837662337662
scalar Network.dyn_peer[21] 	lookupStabilitySig:mean 	0.50171356420819
scalar Network.dyn_peer[21] 	lookupHopsSig:mean 	3.987012987013
scalar Network.dyn_peer[22] 	lookupTimeSig:mean 	0.47719298245614
scalar Network.dyn_peer[22] 	lookupStabilitySig:mean 	0.45497076019906
scalar Network.dyn_peer[22] 	lookupHopsSig:mean 	4.3614035087719
scalar Network.dyn_peer[23] 	lookupTimeSig:mean 	0.49703947368421
scalar Network.dyn_peer[23] 	lookupStabilitySig:mean 	0.43740862558939
scalar Network.dyn_peer[23] 	lookupHopsSig:mean 	4.5065789473684
scalar Network.dyn_peer[24] 	lookupTimeSig:mean 	0.48131487889273
scalar Network.dyn_peer[24] 	lookupStabilitySig:mean 	0.45891003460208
scalar Network.dyn_peer[24] 	lookupHopsSig:mean 	4.3287197231834
scalar Network.dyn_peer[25] 	lookupTimeSig:mean 	0.50168918918919
scalar Network.dyn_peer[25] 	lookupStabilitySig:mean 	0.42745870870312
scalar Network.dyn_peer[25] 	lookupHopsSig:mean 	4.5810810810811
scalar Network.dyn_peer[26] 	lookupTimeSig:mean 	0.4625786163522
scalar Network.dyn_peer[26] 	lookupStabilitySig:mean 	0.48410202651841
scalar Network.dyn_peer[26] 	lookupHopsSig:mean 	4.1320754716981
scalar Network.dyn_peer[27] 	lookupTimeSig:mean 	0.47003367003367
scalar Network.dyn_peer[27] 	lookupStabilitySig:mean 	0.47666479607022
scalar Network.dyn_peer[27] 	lookupHopsSig:mean 	4.1885521885522
scalar Network.dyn_peer[28] 	lookupTimeSig:mean 	0.47602739726027
scalar Network.dyn_peer[28] 	lookupStabilitySig:mean 	0.466752283071
scalar Network.dyn_peer[28] 	lookupHopsSig:mean 	4.2671232876712
scalar Network.dyn_peer[29] 	lookupTimeSig:mean 	0.4854609929078
scalar Network.dyn_peer[29] 	lookupStabilitySig:mean 	0.45577226143251
scalar Network.dyn_peer[29] 	lookupHopsSig:mean 	4.3652482269504
scalar Network.dyn_peer[30] 	lookupTimeSig:mean 	0.46091205211726
scalar Network.dyn_peer[30] 	lookupStabilitySig:mean 	0.48344191095825
scalar Network.dyn_peer[30] 	lookupHopsSig:mean 	4.1335504885993
scalar Network.dyn_peer[31] 	lookupTimeSig:mean 	0.49405204460967
scalar Network.dyn_peer[31] 	lookupStabilitySig:mean 	0.44914291605187
scalar Network.dyn_peer[31] 	lookupHopsSig:mean 	4.4089219330855
