version 2
run Stability-140-20130525-17:51:31-19193
attr configname Stability
attr datetime 20130525-17:51:31
attr experiment Stability
attr inifile omnetpp.ini
attr iterationvars $0=1e-8
attr iterationvars2 "$0=1e-8, $repetition=0"
attr measurement $0=1e-8
attr network Network
attr processid 19193
attr repetition 0
attr replication #0
attr resultdir results
attr runnumber 140
attr seedset 140

scalar Network.dyn_peer[0] 	lookupTimeSig:mean 	0.46437908496732
scalar Network.dyn_peer[0] 	lookupStabilitySig:mean 	0.47308460403891
scalar Network.dyn_peer[0] 	lookupHopsSig:mean 	4.218954248366
scalar Network.dyn_peer[1] 	lookupTimeSig:mean 	0.44622641509434
scalar Network.dyn_peer[1] 	lookupStabilitySig:mean 	0.5084730957008
scalar Network.dyn_peer[1] 	lookupHopsSig:mean 	3.9339622641509
scalar Network.dyn_peer[2] 	lookupTimeSig:mean 	0.46327160493827
scalar Network.dyn_peer[2] 	lookupStabilitySig:mean 	0.48109567901235
scalar Network.dyn_peer[2] 	lookupHopsSig:mean 	4.1512345679012
scalar Network.dyn_peer[3] 	lookupTimeSig:mean 	0.44726688102894
scalar Network.dyn_peer[3] 	lookupStabilitySig:mean 	0.50580564486252
scalar Network.dyn_peer[3] 	lookupHopsSig:mean 	3.9549839228296
scalar Network.dyn_peer[4] 	lookupTimeSig:mean 	0.48791208791209
scalar Network.dyn_peer[4] 	lookupStabilitySig:mean 	0.44459706959707
scalar Network.dyn_peer[4] 	lookupHopsSig:mean 	4.4432234432234
scalar Network.dyn_peer[5] 	lookupTimeSig:mean 	0.49268292682927
scalar Network.dyn_peer[5] 	lookupStabilitySig:mean 	0.44337979094077
scalar Network.dyn_peer[5] 	lookupHopsSig:mean 	4.4529616724739
scalar Network.dyn_peer[6] 	lookupTimeSig:mean 	0.45374592833876
scalar Network.dyn_peer[6] 	lookupStabilitySig:mean 	0.50022620331581
scalar Network.dyn_peer[6] 	lookupHopsSig:mean 	4
scalar Network.dyn_peer[7] 	lookupTimeSig:mean 	0.49464285714286
scalar Network.dyn_peer[7] 	lookupStabilitySig:mean 	0.43249007950404
scalar Network.dyn_peer[7] 	lookupHopsSig:mean 	4.5464285714286
scalar Network.dyn_peer[8] 	lookupTimeSig:mean 	0.49139784946237
scalar Network.dyn_peer[8] 	lookupStabilitySig:mean 	0.43827160493234
scalar Network.dyn_peer[8] 	lookupHopsSig:mean 	4.494623655914
scalar Network.dyn_peer[9] 	lookupTimeSig:mean 	0.45264705882353
scalar Network.dyn_peer[9] 	lookupStabilitySig:mean 	0.49522058823529
scalar Network.dyn_peer[9] 	lookupHopsSig:mean 	4.0382352941176
scalar Network.dyn_peer[10] 	lookupTimeSig:mean 	0.49397163120567
scalar Network.dyn_peer[10] 	lookupStabilitySig:mean 	0.43449566587277
scalar Network.dyn_peer[10] 	lookupHopsSig:mean 	4.5248226950355
scalar Network.dyn_peer[11] 	lookupTimeSig:mean 	0.46329113924051
scalar Network.dyn_peer[11] 	lookupStabilitySig:mean 	0.48778129394956
scalar Network.dyn_peer[11] 	lookupHopsSig:mean 	4.0981012658228
scalar Network.dyn_peer[12] 	lookupTimeSig:mean 	0.49889298892989
scalar Network.dyn_peer[12] 	lookupStabilitySig:mean 	0.42988929878302
scalar Network.dyn_peer[12] 	lookupHopsSig:mean 	4.5645756457565
scalar Network.dyn_peer[13] 	lookupTimeSig:mean 	0.47824675324675
scalar Network.dyn_peer[13] 	lookupStabilitySig:mean 	0.47010281382056
scalar Network.dyn_peer[13] 	lookupHopsSig:mean 	4.2402597402597
scalar Network.dyn_peer[14] 	lookupTimeSig:mean 	0.45529010238908
scalar Network.dyn_peer[14] 	lookupStabilitySig:mean 	0.48743837690394
scalar Network.dyn_peer[14] 	lookupHopsSig:mean 	4.1023890784983
scalar Network.dyn_peer[15] 	lookupTimeSig:mean 	0.46181229773463
scalar Network.dyn_peer[15] 	lookupStabilitySig:mean 	0.48988673139159
scalar Network.dyn_peer[15] 	lookupHopsSig:mean 	4.0809061488673
scalar Network.dyn_peer[16] 	lookupTimeSig:mean 	0.4437106918239
scalar Network.dyn_peer[16] 	lookupStabilitySig:mean 	0.50148497545307
scalar Network.dyn_peer[16] 	lookupHopsSig:mean 	3.9905660377358
scalar Network.dyn_peer[17] 	lookupTimeSig:mean 	0.46875
scalar Network.dyn_peer[17] 	lookupStabilitySig:mean 	0.47313596474889
scalar Network.dyn_peer[17] 	lookupHopsSig:mean 	4.2203947368421
scalar Network.dyn_peer[18] 	lookupTimeSig:mean 	0.44797507788162
scalar Network.dyn_peer[18] 	lookupStabilitySig:mean 	0.50069228097843
scalar Network.dyn_peer[18] 	lookupHopsSig:mean 	3.9968847352025
scalar Network.dyn_peer[19] 	lookupTimeSig:mean 	0.47077464788732
scalar Network.dyn_peer[19] 	lookupStabilitySig:mean 	0.46992370885023
scalar Network.dyn_peer[19] 	lookupHopsSig:mean 	4.2429577464789
scalar Network.dyn_peer[20] 	lookupTimeSig:mean 	0.44571428571429
scalar Network.dyn_peer[20] 	lookupStabilitySig:mean 	0.50758377417685
scalar Network.dyn_peer[20] 	lookupHopsSig:mean 	3.9428571428571
scalar Network.dyn_peer[21] 	lookupTimeSig:mean 	0.43639344262295
scalar Network.dyn_peer[21] 	lookupStabilitySig:mean 	0.51780510017129
scalar Network.dyn_peer[21] 	lookupHopsSig:mean 	3.8590163934426
scalar Network.dyn_peer[22] 	lookupTimeSig:mean 	0.46220735785953
scalar Network.dyn_peer[22] 	lookupStabilitySig:mean 	0.4880156075476
scalar Network.dyn_peer[22] 	lookupHopsSig:mean 	4.0969899665552
scalar Network.dyn_peer[23] 	lookupTimeSig:mean 	0.4378125
scalar Network.dyn_peer[23] 	lookupStabilitySig:mean 	0.51805555555038
scalar Network.dyn_peer[23] 	lookupHopsSig:mean 	3.85625
scalar Network.dyn_peer[24] 	lookupTimeSig:mean 	0.44528301886792
scalar Network.dyn_peer[24] 	lookupStabilitySig:mean 	0.51061320754717
scalar Network.dyn_peer[24] 	lookupHopsSig:mean 	3.9150943396226
scalar Network.dyn_peer[25] 	lookupTimeSig:mean 	0.48945578231292
scalar Network.dyn_peer[25] 	lookupStabilitySig:mean 	0.44345238095238
scalar Network.dyn_peer[25] 	lookupHopsSig:mean 	4.452380952381
scalar Network.dyn_peer[26] 	lookupTimeSig:mean 	0.47755775577558
scalar Network.dyn_peer[26] 	lookupStabilitySig:mean 	0.46351301788103
scalar Network.dyn_peer[26] 	lookupHopsSig:mean 	4.2937293729373
scalar Network.dyn_peer[27] 	lookupTimeSig:mean 	0.47759197324415
scalar Network.dyn_peer[27] 	lookupStabilitySig:mean 	0.46878483831683
scalar Network.dyn_peer[27] 	lookupHopsSig:mean 	4.2541806020067
scalar Network.dyn_peer[28] 	lookupTimeSig:mean 	0.46341463414634
scalar Network.dyn_peer[28] 	lookupStabilitySig:mean 	0.48553039097204
scalar Network.dyn_peer[28] 	lookupHopsSig:mean 	4.1184668989547
scalar Network.dyn_peer[29] 	lookupTimeSig:mean 	0.4462783171521
scalar Network.dyn_peer[29] 	lookupStabilitySig:mean 	0.50548363889305
scalar Network.dyn_peer[29] 	lookupHopsSig:mean 	3.957928802589
scalar Network.dyn_peer[30] 	lookupTimeSig:mean 	0.47647058823529
scalar Network.dyn_peer[30] 	lookupStabilitySig:mean 	0.47149600580432
scalar Network.dyn_peer[30] 	lookupHopsSig:mean 	4.2287581699346
scalar Network.dyn_peer[31] 	lookupTimeSig:mean 	0.48541666666667
scalar Network.dyn_peer[31] 	lookupStabilitySig:mean 	0.45399305555556
scalar Network.dyn_peer[31] 	lookupHopsSig:mean 	4.3680555555556
