version 2
run Stability-74-20130525-17:46:59-19193
attr configname Stability
attr datetime 20130525-17:46:59
attr experiment Stability
attr inifile omnetpp.ini
attr iterationvars $0=1e-1
attr iterationvars2 "$0=1e-1, $repetition=4"
attr measurement $0=1e-1
attr network Network
attr processid 19193
attr repetition 4
attr replication #4
attr resultdir results
attr runnumber 74
attr seedset 74

scalar Network.dyn_peer[0] 	lookupTimeSig:mean 	0.48051118210863
scalar Network.dyn_peer[0] 	lookupStabilitySig:mean 	0.46064075253928
scalar Network.dyn_peer[0] 	lookupHopsSig:mean 	4.3194888178914
scalar Network.dyn_peer[1] 	lookupTimeSig:mean 	0.4959706959707
scalar Network.dyn_peer[1] 	lookupStabilitySig:mean 	0.44368131868132
scalar Network.dyn_peer[1] 	lookupHopsSig:mean 	4.4505494505495
scalar Network.dyn_peer[2] 	lookupTimeSig:mean 	0.48311688311688
scalar Network.dyn_peer[2] 	lookupStabilitySig:mean 	0.45925324666616
scalar Network.dyn_peer[2] 	lookupHopsSig:mean 	4.3311688311688
scalar Network.dyn_peer[3] 	lookupTimeSig:mean 	0.50919117647059
scalar Network.dyn_peer[3] 	lookupStabilitySig:mean 	0.4140625
scalar Network.dyn_peer[3] 	lookupHopsSig:mean 	4.6875
scalar Network.dyn_peer[4] 	lookupTimeSig:mean 	0.43805031446541
scalar Network.dyn_peer[4] 	lookupStabilitySig:mean 	0.51799440941533
scalar Network.dyn_peer[4] 	lookupHopsSig:mean 	3.8584905660377
scalar Network.dyn_peer[5] 	lookupTimeSig:mean 	0.47985347985348
scalar Network.dyn_peer[5] 	lookupStabilitySig:mean 	0.46611721611722
scalar Network.dyn_peer[5] 	lookupHopsSig:mean 	4.2710622710623
scalar Network.dyn_peer[6] 	lookupTimeSig:mean 	0.49463087248322
scalar Network.dyn_peer[6] 	lookupStabilitySig:mean 	0.44085570469799
scalar Network.dyn_peer[6] 	lookupHopsSig:mean 	4.4731543624161
scalar Network.dyn_peer[7] 	lookupTimeSig:mean 	0.44426229508197
scalar Network.dyn_peer[7] 	lookupStabilitySig:mean 	0.50724043709333
scalar Network.dyn_peer[7] 	lookupHopsSig:mean 	3.944262295082
scalar Network.dyn_peer[8] 	lookupTimeSig:mean 	0.46204620462046
scalar Network.dyn_peer[8] 	lookupStabilitySig:mean 	0.48418591857547
scalar Network.dyn_peer[8] 	lookupHopsSig:mean 	4.1287128712871
scalar Network.dyn_peer[9] 	lookupTimeSig:mean 	0.46968641114983
scalar Network.dyn_peer[9] 	lookupStabilitySig:mean 	0.48170731707317
scalar Network.dyn_peer[9] 	lookupHopsSig:mean 	4.1463414634146
scalar Network.dyn_peer[10] 	lookupTimeSig:mean 	0.45884353741497
scalar Network.dyn_peer[10] 	lookupStabilitySig:mean 	0.48497732417012
scalar Network.dyn_peer[10] 	lookupHopsSig:mean 	4.1224489795918
scalar Network.dyn_peer[11] 	lookupTimeSig:mean 	0.49037800687285
scalar Network.dyn_peer[11] 	lookupStabilitySig:mean 	0.44291714394523
scalar Network.dyn_peer[11] 	lookupHopsSig:mean 	4.4604810996564
scalar Network.dyn_peer[12] 	lookupTimeSig:mean 	0.50105263157895
scalar Network.dyn_peer[12] 	lookupStabilitySig:mean 	0.42719298245614
scalar Network.dyn_peer[12] 	lookupHopsSig:mean 	4.5824561403509
scalar Network.dyn_peer[13] 	lookupTimeSig:mean 	0.48350515463918
scalar Network.dyn_peer[13] 	lookupStabilitySig:mean 	0.45508781976716
scalar Network.dyn_peer[13] 	lookupHopsSig:mean 	4.360824742268
scalar Network.dyn_peer[14] 	lookupTimeSig:mean 	0.45296167247387
scalar Network.dyn_peer[14] 	lookupStabilitySig:mean 	0.49206349186158
scalar Network.dyn_peer[14] 	lookupHopsSig:mean 	4.0696864111498
scalar Network.dyn_peer[15] 	lookupTimeSig:mean 	0.47195945945946
scalar Network.dyn_peer[15] 	lookupStabilitySig:mean 	0.47850975960594
scalar Network.dyn_peer[15] 	lookupHopsSig:mean 	4.1824324324324
scalar Network.dyn_peer[16] 	lookupTimeSig:mean 	0.44068322981366
scalar Network.dyn_peer[16] 	lookupStabilitySig:mean 	0.5122929606471
scalar Network.dyn_peer[16] 	lookupHopsSig:mean 	3.9037267080745
scalar Network.dyn_peer[17] 	lookupTimeSig:mean 	0.46517571884984
scalar Network.dyn_peer[17] 	lookupStabilitySig:mean 	0.48344870418691
scalar Network.dyn_peer[17] 	lookupHopsSig:mean 	4.1373801916933
scalar Network.dyn_peer[18] 	lookupTimeSig:mean 	0.49411764705882
scalar Network.dyn_peer[18] 	lookupStabilitySig:mean 	0.43915801611326
scalar Network.dyn_peer[18] 	lookupHopsSig:mean 	4.4878892733564
scalar Network.dyn_peer[19] 	lookupTimeSig:mean 	0.46438356164384
scalar Network.dyn_peer[19] 	lookupStabilitySig:mean 	0.47802511408721
scalar Network.dyn_peer[19] 	lookupHopsSig:mean 	4.1780821917808
scalar Network.dyn_peer[20] 	lookupTimeSig:mean 	0.48731884057971
scalar Network.dyn_peer[20] 	lookupStabilitySig:mean 	0.45289855072464
scalar Network.dyn_peer[20] 	lookupHopsSig:mean 	4.3768115942029
scalar Network.dyn_peer[21] 	lookupTimeSig:mean 	0.49025270758123
scalar Network.dyn_peer[21] 	lookupStabilitySig:mean 	0.44439430400353
scalar Network.dyn_peer[21] 	lookupHopsSig:mean 	4.4476534296029
scalar Network.dyn_peer[22] 	lookupTimeSig:mean 	0.47344262295082
scalar Network.dyn_peer[22] 	lookupStabilitySig:mean 	0.47194899809165
scalar Network.dyn_peer[22] 	lookupHopsSig:mean 	4.2327868852459
scalar Network.dyn_peer[23] 	lookupTimeSig:mean 	0.49754385964912
scalar Network.dyn_peer[23] 	lookupStabilitySig:mean 	0.43640350871965
scalar Network.dyn_peer[23] 	lookupHopsSig:mean 	4.5122807017544
scalar Network.dyn_peer[24] 	lookupTimeSig:mean 	0.4906976744186
scalar Network.dyn_peer[24] 	lookupStabilitySig:mean 	0.45238095229844
scalar Network.dyn_peer[24] 	lookupHopsSig:mean 	4.3853820598007
scalar Network.dyn_peer[25] 	lookupTimeSig:mean 	0.45852842809365
scalar Network.dyn_peer[25] 	lookupStabilitySig:mean 	0.48764399847757
scalar Network.dyn_peer[25] 	lookupHopsSig:mean 	4.1003344481605
scalar Network.dyn_peer[26] 	lookupTimeSig:mean 	0.471875
scalar Network.dyn_peer[26] 	lookupStabilitySig:mean 	0.47501929011196
scalar Network.dyn_peer[26] 	lookupHopsSig:mean 	4.2013888888889
scalar Network.dyn_peer[27] 	lookupTimeSig:mean 	0.4635761589404
scalar Network.dyn_peer[27] 	lookupStabilitySig:mean 	0.47585540837207
scalar Network.dyn_peer[27] 	lookupHopsSig:mean 	4.1953642384106
scalar Network.dyn_peer[28] 	lookupTimeSig:mean 	0.50961538461538
scalar Network.dyn_peer[28] 	lookupStabilitySig:mean 	0.42126068381163
scalar Network.dyn_peer[28] 	lookupHopsSig:mean 	4.6346153846154
scalar Network.dyn_peer[29] 	lookupTimeSig:mean 	0.45384615384615
scalar Network.dyn_peer[29] 	lookupStabilitySig:mean 	0.49991096852299
scalar Network.dyn_peer[29] 	lookupHopsSig:mean 	4.0064102564103
scalar Network.dyn_peer[30] 	lookupTimeSig:mean 	0.45296052631579
scalar Network.dyn_peer[30] 	lookupStabilitySig:mean 	0.49867507305584
scalar Network.dyn_peer[30] 	lookupHopsSig:mean 	4.0131578947368
scalar Network.dyn_peer[31] 	lookupTimeSig:mean 	0.44133738601824
scalar Network.dyn_peer[31] 	lookupStabilitySig:mean 	0.51283350215494
scalar Network.dyn_peer[31] 	lookupHopsSig:mean 	3.8996960486322
