version 2
run Stability-147-20130525-17:52:00-19193
attr configname Stability
attr datetime 20130525-17:52:00
attr experiment Stability
attr inifile omnetpp.ini
attr iterationvars $0=1e-8
attr iterationvars2 "$0=1e-8, $repetition=7"
attr measurement $0=1e-8
attr network Network
attr processid 19193
attr repetition 7
attr replication #7
attr resultdir results
attr runnumber 147
attr seedset 147

scalar Network.dyn_peer[0] 	lookupTimeSig:mean 	0.44641744548287
scalar Network.dyn_peer[0] 	lookupStabilitySig:mean 	0.50921599163073
scalar Network.dyn_peer[0] 	lookupHopsSig:mean 	3.9314641744548
scalar Network.dyn_peer[1] 	lookupTimeSig:mean 	0.50037453183521
scalar Network.dyn_peer[1] 	lookupStabilitySig:mean 	0.4288909695903
scalar Network.dyn_peer[1] 	lookupHopsSig:mean 	4.5730337078652
scalar Network.dyn_peer[2] 	lookupTimeSig:mean 	0.46086956521739
scalar Network.dyn_peer[2] 	lookupStabilitySig:mean 	0.48136645962733
scalar Network.dyn_peer[2] 	lookupHopsSig:mean 	4.1490683229814
scalar Network.dyn_peer[3] 	lookupTimeSig:mean 	0.4484375
scalar Network.dyn_peer[3] 	lookupStabilitySig:mean 	0.50390625
scalar Network.dyn_peer[3] 	lookupHopsSig:mean 	3.96875
scalar Network.dyn_peer[4] 	lookupTimeSig:mean 	0.44868421052632
scalar Network.dyn_peer[4] 	lookupStabilitySig:mean 	0.4951114764339
scalar Network.dyn_peer[4] 	lookupHopsSig:mean 	4.0460526315789
scalar Network.dyn_peer[5] 	lookupTimeSig:mean 	0.49934426229508
scalar Network.dyn_peer[5] 	lookupStabilitySig:mean 	0.43492714024958
scalar Network.dyn_peer[5] 	lookupHopsSig:mean 	4.5213114754098
scalar Network.dyn_peer[6] 	lookupTimeSig:mean 	0.44394904458599
scalar Network.dyn_peer[6] 	lookupStabilitySig:mean 	0.50924451506821
scalar Network.dyn_peer[6] 	lookupHopsSig:mean 	3.9299363057325
scalar Network.dyn_peer[7] 	lookupTimeSig:mean 	0.47201257861635
scalar Network.dyn_peer[7] 	lookupStabilitySig:mean 	0.47296470984723
scalar Network.dyn_peer[7] 	lookupHopsSig:mean 	4.2201257861635
scalar Network.dyn_peer[8] 	lookupTimeSig:mean 	0.46511627906977
scalar Network.dyn_peer[8] 	lookupStabilitySig:mean 	0.48394241411722
scalar Network.dyn_peer[8] 	lookupHopsSig:mean 	4.1328903654485
scalar Network.dyn_peer[9] 	lookupTimeSig:mean 	0.48561403508772
scalar Network.dyn_peer[9] 	lookupStabilitySig:mean 	0.45506822610633
scalar Network.dyn_peer[9] 	lookupHopsSig:mean 	4.3614035087719
scalar Network.dyn_peer[10] 	lookupTimeSig:mean 	0.46820987654321
scalar Network.dyn_peer[10] 	lookupStabilitySig:mean 	0.4765946501981
scalar Network.dyn_peer[10] 	lookupHopsSig:mean 	4.1882716049383
scalar Network.dyn_peer[11] 	lookupTimeSig:mean 	0.46666666666667
scalar Network.dyn_peer[11] 	lookupStabilitySig:mean 	0.48061056105611
scalar Network.dyn_peer[11] 	lookupHopsSig:mean 	4.1551155115512
scalar Network.dyn_peer[12] 	lookupTimeSig:mean 	0.48601398601399
scalar Network.dyn_peer[12] 	lookupStabilitySig:mean 	0.45066045065756
scalar Network.dyn_peer[12] 	lookupHopsSig:mean 	4.3951048951049
scalar Network.dyn_peer[13] 	lookupTimeSig:mean 	0.44632587859425
scalar Network.dyn_peer[13] 	lookupStabilitySig:mean 	0.50168619097803
scalar Network.dyn_peer[13] 	lookupHopsSig:mean 	3.9872204472843
scalar Network.dyn_peer[14] 	lookupTimeSig:mean 	0.475
scalar Network.dyn_peer[14] 	lookupStabilitySig:mean 	0.47464802121259
scalar Network.dyn_peer[14] 	lookupHopsSig:mean 	4.2054794520548
scalar Network.dyn_peer[15] 	lookupTimeSig:mean 	0.45650793650794
scalar Network.dyn_peer[15] 	lookupStabilitySig:mean 	0.49069664901684
scalar Network.dyn_peer[15] 	lookupHopsSig:mean 	4.0761904761905
scalar Network.dyn_peer[16] 	lookupTimeSig:mean 	0.52243346007605
scalar Network.dyn_peer[16] 	lookupStabilitySig:mean 	0.4056294887918
scalar Network.dyn_peer[16] 	lookupHopsSig:mean 	4.7566539923954
scalar Network.dyn_peer[17] 	lookupTimeSig:mean 	0.48466666666667
scalar Network.dyn_peer[17] 	lookupStabilitySig:mean 	0.45361111109455
scalar Network.dyn_peer[17] 	lookupHopsSig:mean 	4.3733333333333
scalar Network.dyn_peer[18] 	lookupTimeSig:mean 	0.46111111111111
scalar Network.dyn_peer[18] 	lookupStabilitySig:mean 	0.48579339142524
scalar Network.dyn_peer[18] 	lookupHopsSig:mean 	4.1143790849673
scalar Network.dyn_peer[19] 	lookupTimeSig:mean 	0.50508474576271
scalar Network.dyn_peer[19] 	lookupStabilitySig:mean 	0.42787193964093
scalar Network.dyn_peer[19] 	lookupHopsSig:mean 	4.5796610169492
scalar Network.dyn_peer[20] 	lookupTimeSig:mean 	0.49501779359431
scalar Network.dyn_peer[20] 	lookupStabilitySig:mean 	0.44508699081122
scalar Network.dyn_peer[20] 	lookupHopsSig:mean 	4.44128113879
scalar Network.dyn_peer[21] 	lookupTimeSig:mean 	0.47623456790123
scalar Network.dyn_peer[21] 	lookupStabilitySig:mean 	0.46579218094732
scalar Network.dyn_peer[21] 	lookupHopsSig:mean 	4.2777777777778
scalar Network.dyn_peer[22] 	lookupTimeSig:mean 	0.47515527950311
scalar Network.dyn_peer[22] 	lookupStabilitySig:mean 	0.46661490673974
scalar Network.dyn_peer[22] 	lookupHopsSig:mean 	4.2701863354037
scalar Network.dyn_peer[23] 	lookupTimeSig:mean 	0.50553633217993
scalar Network.dyn_peer[23] 	lookupStabilitySig:mean 	0.43252595155709
scalar Network.dyn_peer[23] 	lookupHopsSig:mean 	4.5397923875433
scalar Network.dyn_peer[24] 	lookupTimeSig:mean 	0.46378205128205
scalar Network.dyn_peer[24] 	lookupStabilitySig:mean 	0.4786324785688
scalar Network.dyn_peer[24] 	lookupHopsSig:mean 	4.1794871794872
scalar Network.dyn_peer[25] 	lookupTimeSig:mean 	0.47935483870968
scalar Network.dyn_peer[25] 	lookupStabilitySig:mean 	0.4599014336063
scalar Network.dyn_peer[25] 	lookupHopsSig:mean 	4.3225806451613
scalar Network.dyn_peer[26] 	lookupTimeSig:mean 	0.48367346938776
scalar Network.dyn_peer[26] 	lookupStabilitySig:mean 	0.45488473154655
scalar Network.dyn_peer[26] 	lookupHopsSig:mean 	4.3639455782313
scalar Network.dyn_peer[27] 	lookupTimeSig:mean 	0.44509803921569
scalar Network.dyn_peer[27] 	lookupStabilitySig:mean 	0.50757988369445
scalar Network.dyn_peer[27] 	lookupHopsSig:mean 	3.9444444444444
scalar Network.dyn_peer[28] 	lookupTimeSig:mean 	0.47781456953642
scalar Network.dyn_peer[28] 	lookupStabilitySig:mean 	0.46224245764562
scalar Network.dyn_peer[28] 	lookupHopsSig:mean 	4.3046357615894
scalar Network.dyn_peer[29] 	lookupTimeSig:mean 	0.44722222222222
scalar Network.dyn_peer[29] 	lookupStabilitySig:mean 	0.50565843619866
scalar Network.dyn_peer[29] 	lookupHopsSig:mean 	3.9567901234568
scalar Network.dyn_peer[30] 	lookupTimeSig:mean 	0.45362776025237
scalar Network.dyn_peer[30] 	lookupStabilitySig:mean 	0.49036102344749
scalar Network.dyn_peer[30] 	lookupHopsSig:mean 	4.0788643533123
scalar Network.dyn_peer[31] 	lookupTimeSig:mean 	0.49072164948454
scalar Network.dyn_peer[31] 	lookupStabilitySig:mean 	0.446735395189
scalar Network.dyn_peer[31] 	lookupHopsSig:mean 	4.426116838488
