version 2
run Stability-62-20130525-17:46:10-19193
attr configname Stability
attr datetime 20130525-17:46:10
attr experiment Stability
attr inifile omnetpp.ini
attr iterationvars $0=1e0
attr iterationvars2 "$0=1e0, $repetition=2"
attr measurement $0=1e0
attr network Network
attr processid 19193
attr repetition 2
attr replication #2
attr resultdir results
attr runnumber 62
attr seedset 62

scalar Network.dyn_peer[0] 	lookupTimeSig:mean 	0.45185185185185
scalar Network.dyn_peer[0] 	lookupStabilitySig:mean 	0.49399862824767
scalar Network.dyn_peer[0] 	lookupHopsSig:mean 	4.0493827160494
scalar Network.dyn_peer[1] 	lookupTimeSig:mean 	0.45925925925926
scalar Network.dyn_peer[1] 	lookupStabilitySig:mean 	0.48554994386655
scalar Network.dyn_peer[1] 	lookupHopsSig:mean 	4.1178451178451
scalar Network.dyn_peer[2] 	lookupTimeSig:mean 	0.46965517241379
scalar Network.dyn_peer[2] 	lookupStabilitySig:mean 	0.46508620689655
scalar Network.dyn_peer[2] 	lookupHopsSig:mean 	4.2793103448276
scalar Network.dyn_peer[3] 	lookupTimeSig:mean 	0.46838709677419
scalar Network.dyn_peer[3] 	lookupStabilitySig:mean 	0.47365591393844
scalar Network.dyn_peer[3] 	lookupHopsSig:mean 	4.2129032258065
scalar Network.dyn_peer[4] 	lookupTimeSig:mean 	0.46802721088435
scalar Network.dyn_peer[4] 	lookupStabilitySig:mean 	0.46981292517007
scalar Network.dyn_peer[4] 	lookupHopsSig:mean 	4.2414965986395
scalar Network.dyn_peer[5] 	lookupTimeSig:mean 	0.42710280373832
scalar Network.dyn_peer[5] 	lookupStabilitySig:mean 	0.53011422634496
scalar Network.dyn_peer[5] 	lookupHopsSig:mean 	3.7601246105919
scalar Network.dyn_peer[6] 	lookupTimeSig:mean 	0.45886524822695
scalar Network.dyn_peer[6] 	lookupStabilitySig:mean 	0.49029747832646
scalar Network.dyn_peer[6] 	lookupHopsSig:mean 	4.0780141843972
scalar Network.dyn_peer[7] 	lookupTimeSig:mean 	0.44847457627119
scalar Network.dyn_peer[7] 	lookupStabilitySig:mean 	0.49279661016949
scalar Network.dyn_peer[7] 	lookupHopsSig:mean 	4.0576271186441
scalar Network.dyn_peer[8] 	lookupTimeSig:mean 	0.49775280898876
scalar Network.dyn_peer[8] 	lookupStabilitySig:mean 	0.42894298792555
scalar Network.dyn_peer[8] 	lookupHopsSig:mean 	4.5692883895131
scalar Network.dyn_peer[9] 	lookupTimeSig:mean 	0.48114478114478
scalar Network.dyn_peer[9] 	lookupStabilitySig:mean 	0.45412457912458
scalar Network.dyn_peer[9] 	lookupHopsSig:mean 	4.3670033670034
scalar Network.dyn_peer[10] 	lookupTimeSig:mean 	0.47297297297297
scalar Network.dyn_peer[10] 	lookupStabilitySig:mean 	0.46921921909057
scalar Network.dyn_peer[10] 	lookupHopsSig:mean 	4.2567567567568
scalar Network.dyn_peer[11] 	lookupTimeSig:mean 	0.4563829787234
scalar Network.dyn_peer[11] 	lookupStabilitySig:mean 	0.49246453900709
scalar Network.dyn_peer[11] 	lookupHopsSig:mean 	4.0602836879433
scalar Network.dyn_peer[12] 	lookupTimeSig:mean 	0.46527777777778
scalar Network.dyn_peer[12] 	lookupStabilitySig:mean 	0.48244598756234
scalar Network.dyn_peer[12] 	lookupHopsSig:mean 	4.1423611111111
scalar Network.dyn_peer[13] 	lookupTimeSig:mean 	0.46379310344828
scalar Network.dyn_peer[13] 	lookupStabilitySig:mean 	0.4808908045035
scalar Network.dyn_peer[13] 	lookupHopsSig:mean 	4.1551724137931
scalar Network.dyn_peer[14] 	lookupTimeSig:mean 	0.44451612903226
scalar Network.dyn_peer[14] 	lookupStabilitySig:mean 	0.50846774193548
scalar Network.dyn_peer[14] 	lookupHopsSig:mean 	3.9322580645161
scalar Network.dyn_peer[15] 	lookupTimeSig:mean 	0.48421052631579
scalar Network.dyn_peer[15] 	lookupStabilitySig:mean 	0.45300751879699
scalar Network.dyn_peer[15] 	lookupHopsSig:mean 	4.3759398496241
scalar Network.dyn_peer[16] 	lookupTimeSig:mean 	0.49365671641791
scalar Network.dyn_peer[16] 	lookupStabilitySig:mean 	0.43983208955224
scalar Network.dyn_peer[16] 	lookupHopsSig:mean 	4.4813432835821
scalar Network.dyn_peer[17] 	lookupTimeSig:mean 	0.45951557093426
scalar Network.dyn_peer[17] 	lookupStabilitySig:mean 	0.49370434439409
scalar Network.dyn_peer[17] 	lookupHopsSig:mean 	4.0553633217993
scalar Network.dyn_peer[18] 	lookupTimeSig:mean 	0.46050724637681
scalar Network.dyn_peer[18] 	lookupStabilitySig:mean 	0.48641304347826
scalar Network.dyn_peer[18] 	lookupHopsSig:mean 	4.1086956521739
scalar Network.dyn_peer[19] 	lookupTimeSig:mean 	0.48576642335766
scalar Network.dyn_peer[19] 	lookupStabilitySig:mean 	0.44753649635036
scalar Network.dyn_peer[19] 	lookupHopsSig:mean 	4.4197080291971
scalar Network.dyn_peer[20] 	lookupTimeSig:mean 	0.47364864864865
scalar Network.dyn_peer[20] 	lookupStabilitySig:mean 	0.4697353603268
scalar Network.dyn_peer[20] 	lookupHopsSig:mean 	4.2432432432432
scalar Network.dyn_peer[21] 	lookupTimeSig:mean 	0.46094276094276
scalar Network.dyn_peer[21] 	lookupStabilitySig:mean 	0.48793490456812
scalar Network.dyn_peer[21] 	lookupHopsSig:mean 	4.0976430976431
scalar Network.dyn_peer[22] 	lookupTimeSig:mean 	0.50736434108527
scalar Network.dyn_peer[22] 	lookupStabilitySig:mean 	0.41472868217054
scalar Network.dyn_peer[22] 	lookupHopsSig:mean 	4.6821705426357
scalar Network.dyn_peer[23] 	lookupTimeSig:mean 	0.4658064516129
scalar Network.dyn_peer[23] 	lookupStabilitySig:mean 	0.47782258064516
scalar Network.dyn_peer[23] 	lookupHopsSig:mean 	4.1774193548387
scalar Network.dyn_peer[24] 	lookupTimeSig:mean 	0.43707165109034
scalar Network.dyn_peer[24] 	lookupStabilitySig:mean 	0.51492731048032
scalar Network.dyn_peer[24] 	lookupHopsSig:mean 	3.8816199376947
scalar Network.dyn_peer[25] 	lookupTimeSig:mean 	0.47361563517915
scalar Network.dyn_peer[25] 	lookupStabilitySig:mean 	0.47190553745928
scalar Network.dyn_peer[25] 	lookupHopsSig:mean 	4.2247557003257
scalar Network.dyn_peer[26] 	lookupTimeSig:mean 	0.48142857142857
scalar Network.dyn_peer[26] 	lookupStabilitySig:mean 	0.45520833331559
scalar Network.dyn_peer[26] 	lookupHopsSig:mean 	4.3607142857143
scalar Network.dyn_peer[27] 	lookupTimeSig:mean 	0.44198717948718
scalar Network.dyn_peer[27] 	lookupStabilitySig:mean 	0.50240384615385
scalar Network.dyn_peer[27] 	lookupHopsSig:mean 	3.9807692307692
scalar Network.dyn_peer[28] 	lookupTimeSig:mean 	0.44760383386582
scalar Network.dyn_peer[28] 	lookupStabilitySig:mean 	0.50177493786659
scalar Network.dyn_peer[28] 	lookupHopsSig:mean 	3.9872204472843
scalar Network.dyn_peer[29] 	lookupTimeSig:mean 	0.43865030674847
scalar Network.dyn_peer[29] 	lookupStabilitySig:mean 	0.51648773006135
scalar Network.dyn_peer[29] 	lookupHopsSig:mean 	3.8680981595092
scalar Network.dyn_peer[30] 	lookupTimeSig:mean 	0.46305732484076
scalar Network.dyn_peer[30] 	lookupStabilitySig:mean 	0.49177282374756
scalar Network.dyn_peer[30] 	lookupHopsSig:mean 	4.0668789808917
scalar Network.dyn_peer[31] 	lookupTimeSig:mean 	0.50797101449275
scalar Network.dyn_peer[31] 	lookupStabilitySig:mean 	0.42617753623188
scalar Network.dyn_peer[31] 	lookupHopsSig:mean 	4.5905797101449
