version 2
run Join-71-20130520-16:33:06-32715
attr configname Join
attr datetime 20130520-16:33:06
attr experiment "\"Join\""
attr inifile omnetpp.ini
attr iterationvars $0=4096
attr iterationvars2 "$0=4096, $repetition=1"
attr measurement $0=4096
attr network Network
attr processid 32715
attr repetition 1
attr replication #1
attr resultdir results
attr runnumber 71
attr seedset 71

scalar Network.dyn_peer[0] 	lookupHopsSig:last 	35
scalar Network.dyn_peer[0] 	lookupHopsSig:max 	102
scalar Network.dyn_peer[0] 	lookupHopsSig:min 	1
scalar Network.dyn_peer[0] 	lookupHopsSig:mean 	25.695414847162
scalar Network.dyn_peer[0] 	lookupHopsSig:timeavg 	26.415553839386
scalar Network.dyn_peer[0] 	LookupFailuresSig:max 	-nan
scalar Network.dyn_peer[0] 	LookupFailuresSig:timeavg 	-nan
