version 2
run Join-91-20130520-16:38:40-32715
attr configname Join
attr datetime 20130520-16:38:40
attr experiment "\"Join\""
attr inifile omnetpp.ini
attr iterationvars $0=16384
attr iterationvars2 "$0=16384, $repetition=1"
attr measurement $0=16384
attr network Network
attr processid 32715
attr repetition 1
attr replication #1
attr resultdir results
attr runnumber 91
attr seedset 91

scalar Network.dyn_peer[0] 	lookupHopsSig:last 	15
scalar Network.dyn_peer[0] 	lookupHopsSig:max 	230
scalar Network.dyn_peer[0] 	lookupHopsSig:min 	1
scalar Network.dyn_peer[0] 	lookupHopsSig:mean 	60.287179487179
scalar Network.dyn_peer[0] 	lookupHopsSig:timeavg 	62.63380986827
scalar Network.dyn_peer[0] 	LookupFailuresSig:max 	-nan
scalar Network.dyn_peer[0] 	LookupFailuresSig:timeavg 	-nan
