version 2
run Join-87-20130520-16:36:19-32715
attr configname Join
attr datetime 20130520-16:36:19
attr experiment "\"Join\""
attr inifile omnetpp.ini
attr iterationvars $0=8192
attr iterationvars2 "$0=8192, $repetition=7"
attr measurement $0=8192
attr network Network
attr processid 32715
attr repetition 7
attr replication #7
attr resultdir results
attr runnumber 87
attr seedset 87

scalar Network.dyn_peer[0] 	lookupHopsSig:last 	44
scalar Network.dyn_peer[0] 	lookupHopsSig:max 	148
scalar Network.dyn_peer[0] 	lookupHopsSig:min 	2
scalar Network.dyn_peer[0] 	lookupHopsSig:mean 	39.850104821803
scalar Network.dyn_peer[0] 	lookupHopsSig:timeavg 	41.00653820121
scalar Network.dyn_peer[0] 	LookupFailuresSig:max 	-nan
scalar Network.dyn_peer[0] 	LookupFailuresSig:timeavg 	-nan
