version 2
run Join-73-20130520-16:33:18-32715
attr configname Join
attr datetime 20130520-16:33:18
attr experiment "\"Join\""
attr inifile omnetpp.ini
attr iterationvars $0=4096
attr iterationvars2 "$0=4096, $repetition=3"
attr measurement $0=4096
attr network Network
attr processid 32715
attr repetition 3
attr replication #3
attr resultdir results
attr runnumber 73
attr seedset 73

scalar Network.dyn_peer[0] 	lookupHopsSig:last 	29
scalar Network.dyn_peer[0] 	lookupHopsSig:max 	100
scalar Network.dyn_peer[0] 	lookupHopsSig:min 	1
scalar Network.dyn_peer[0] 	lookupHopsSig:mean 	27.154098360656
scalar Network.dyn_peer[0] 	lookupHopsSig:timeavg 	28.46422250097
scalar Network.dyn_peer[0] 	LookupFailuresSig:max 	-nan
scalar Network.dyn_peer[0] 	LookupFailuresSig:timeavg 	-nan
