version 2
run Join-31-20130520-16:32:16-32715
attr configname Join
attr datetime 20130520-16:32:16
attr experiment "\"Join\""
attr inifile omnetpp.ini
attr iterationvars $0=256
attr iterationvars2 "$0=256, $repetition=1"
attr measurement $0=256
attr network Network
attr processid 32715
attr repetition 1
attr replication #1
attr resultdir results
attr runnumber 31
attr seedset 31

scalar Network.dyn_peer[0] 	lookupHopsSig:last 	13
scalar Network.dyn_peer[0] 	lookupHopsSig:max 	21
scalar Network.dyn_peer[0] 	lookupHopsSig:min 	1
scalar Network.dyn_peer[0] 	lookupHopsSig:mean 	6.5936739659367
scalar Network.dyn_peer[0] 	lookupHopsSig:timeavg 	6.6861976542087
scalar Network.dyn_peer[0] 	LookupFailuresSig:max 	-nan
scalar Network.dyn_peer[0] 	LookupFailuresSig:timeavg 	-nan
