version 2
run Join-83-20130520-16:34:58-32715
attr configname Join
attr datetime 20130520-16:34:58
attr experiment "\"Join\""
attr inifile omnetpp.ini
attr iterationvars $0=8192
attr iterationvars2 "$0=8192, $repetition=3"
attr measurement $0=8192
attr network Network
attr processid 32715
attr repetition 3
attr replication #3
attr resultdir results
attr runnumber 83
attr seedset 83

scalar Network.dyn_peer[0] 	lookupHopsSig:last 	45
scalar Network.dyn_peer[0] 	lookupHopsSig:max 	133
scalar Network.dyn_peer[0] 	lookupHopsSig:min 	2
scalar Network.dyn_peer[0] 	lookupHopsSig:mean 	39.341046277666
scalar Network.dyn_peer[0] 	lookupHopsSig:timeavg 	41.074987886851
scalar Network.dyn_peer[0] 	LookupFailuresSig:max 	-nan
scalar Network.dyn_peer[0] 	LookupFailuresSig:timeavg 	-nan
