version 2
run Join-10-20130520-16:32:11-32715
attr configname Join
attr datetime 20130520-16:32:11
attr experiment "\"Join\""
attr inifile omnetpp.ini
attr iterationvars $0=64
attr iterationvars2 "$0=64, $repetition=0"
attr measurement $0=64
attr network Network
attr processid 32715
attr repetition 0
attr replication #0
attr resultdir results
attr runnumber 10
attr seedset 10

scalar Network.dyn_peer[0] 	lookupHopsSig:last 	5
scalar Network.dyn_peer[0] 	lookupHopsSig:max 	10
scalar Network.dyn_peer[0] 	lookupHopsSig:min 	1
scalar Network.dyn_peer[0] 	lookupHopsSig:mean 	3.4120734908136
scalar Network.dyn_peer[0] 	lookupHopsSig:timeavg 	3.479490549625
scalar Network.dyn_peer[0] 	LookupFailuresSig:max 	-nan
scalar Network.dyn_peer[0] 	LookupFailuresSig:timeavg 	-nan
