version 2
run Join-69-20130520-16:32:59-32715
attr configname Join
attr datetime 20130520-16:32:59
attr experiment "\"Join\""
attr inifile omnetpp.ini
attr iterationvars $0=2048
attr iterationvars2 "$0=2048, $repetition=9"
attr measurement $0=2048
attr network Network
attr processid 32715
attr repetition 9
attr replication #9
attr resultdir results
attr runnumber 69
attr seedset 69

scalar Network.dyn_peer[0] 	lookupHopsSig:last 	27
scalar Network.dyn_peer[0] 	lookupHopsSig:max 	73
scalar Network.dyn_peer[0] 	lookupHopsSig:min 	1
scalar Network.dyn_peer[0] 	lookupHopsSig:mean 	18.816129032258
scalar Network.dyn_peer[0] 	lookupHopsSig:timeavg 	19.431404236534
scalar Network.dyn_peer[0] 	LookupFailuresSig:max 	-nan
scalar Network.dyn_peer[0] 	LookupFailuresSig:timeavg 	-nan
