version 2
run Join-85-20130520-16:35:37-32715
attr configname Join
attr datetime 20130520-16:35:37
attr experiment "\"Join\""
attr inifile omnetpp.ini
attr iterationvars $0=8192
attr iterationvars2 "$0=8192, $repetition=5"
attr measurement $0=8192
attr network Network
attr processid 32715
attr repetition 5
attr replication #5
attr resultdir results
attr runnumber 85
attr seedset 85

scalar Network.dyn_peer[0] 	lookupHopsSig:last 	27
scalar Network.dyn_peer[0] 	lookupHopsSig:max 	149
scalar Network.dyn_peer[0] 	lookupHopsSig:min 	1
scalar Network.dyn_peer[0] 	lookupHopsSig:mean 	36.506951871658
scalar Network.dyn_peer[0] 	lookupHopsSig:timeavg 	38.126762745891
scalar Network.dyn_peer[0] 	LookupFailuresSig:max 	-nan
scalar Network.dyn_peer[0] 	LookupFailuresSig:timeavg 	-nan
