version 2
run Join-50-20130520-16:32:26-32715
attr configname Join
attr datetime 20130520-16:32:26
attr experiment "\"Join\""
attr inifile omnetpp.ini
attr iterationvars $0=1024
attr iterationvars2 "$0=1024, $repetition=0"
attr measurement $0=1024
attr network Network
attr processid 32715
attr repetition 0
attr replication #0
attr resultdir results
attr runnumber 50
attr seedset 50

scalar Network.dyn_peer[0] 	lookupHopsSig:last 	10
scalar Network.dyn_peer[0] 	lookupHopsSig:max 	56
scalar Network.dyn_peer[0] 	lookupHopsSig:min 	1
scalar Network.dyn_peer[0] 	lookupHopsSig:mean 	13.429054054054
scalar Network.dyn_peer[0] 	lookupHopsSig:timeavg 	13.968007562826
scalar Network.dyn_peer[0] 	LookupFailuresSig:max 	-nan
scalar Network.dyn_peer[0] 	LookupFailuresSig:timeavg 	-nan
