version 2
run Join-57-20130520-16:32:34-32715
attr configname Join
attr datetime 20130520-16:32:34
attr experiment "\"Join\""
attr inifile omnetpp.ini
attr iterationvars $0=1024
attr iterationvars2 "$0=1024, $repetition=7"
attr measurement $0=1024
attr network Network
attr processid 32715
attr repetition 7
attr replication #7
attr resultdir results
attr runnumber 57
attr seedset 57

scalar Network.dyn_peer[0] 	lookupHopsSig:last 	16
scalar Network.dyn_peer[0] 	lookupHopsSig:max 	50
scalar Network.dyn_peer[0] 	lookupHopsSig:min 	1
scalar Network.dyn_peer[0] 	lookupHopsSig:mean 	14.094076655052
scalar Network.dyn_peer[0] 	lookupHopsSig:timeavg 	14.5872465249
scalar Network.dyn_peer[0] 	LookupFailuresSig:max 	-nan
scalar Network.dyn_peer[0] 	LookupFailuresSig:timeavg 	-nan
