version 2
run Join-36-20130520-16:32:18-32715
attr configname Join
attr datetime 20130520-16:32:18
attr experiment "\"Join\""
attr inifile omnetpp.ini
attr iterationvars $0=256
attr iterationvars2 "$0=256, $repetition=6"
attr measurement $0=256
attr network Network
attr processid 32715
attr repetition 6
attr replication #6
attr resultdir results
attr runnumber 36
attr seedset 36

scalar Network.dyn_peer[0] 	lookupHopsSig:last 	9
scalar Network.dyn_peer[0] 	lookupHopsSig:max 	24
scalar Network.dyn_peer[0] 	lookupHopsSig:min 	1
scalar Network.dyn_peer[0] 	lookupHopsSig:mean 	7.1567505720824
scalar Network.dyn_peer[0] 	lookupHopsSig:timeavg 	7.1841283902277
scalar Network.dyn_peer[0] 	LookupFailuresSig:max 	-nan
scalar Network.dyn_peer[0] 	LookupFailuresSig:timeavg 	-nan
