version 2
run Join-72-20130520-16:33:12-32715
attr configname Join
attr datetime 20130520-16:33:12
attr experiment "\"Join\""
attr inifile omnetpp.ini
attr iterationvars $0=4096
attr iterationvars2 "$0=4096, $repetition=2"
attr measurement $0=4096
attr network Network
attr processid 32715
attr repetition 2
attr replication #2
attr resultdir results
attr runnumber 72
attr seedset 72

scalar Network.dyn_peer[0] 	lookupHopsSig:last 	17
scalar Network.dyn_peer[0] 	lookupHopsSig:max 	97
scalar Network.dyn_peer[0] 	lookupHopsSig:min 	1
scalar Network.dyn_peer[0] 	lookupHopsSig:mean 	27.255367231638
scalar Network.dyn_peer[0] 	lookupHopsSig:timeavg 	28.019274044282
scalar Network.dyn_peer[0] 	LookupFailuresSig:max 	-nan
scalar Network.dyn_peer[0] 	LookupFailuresSig:timeavg 	-nan
