version 2
run Join-59-20130520-16:32:36-32715
attr configname Join
attr datetime 20130520-16:32:36
attr experiment "\"Join\""
attr inifile omnetpp.ini
attr iterationvars $0=1024
attr iterationvars2 "$0=1024, $repetition=9"
attr measurement $0=1024
attr network Network
attr processid 32715
attr repetition 9
attr replication #9
attr resultdir results
attr runnumber 59
attr seedset 59

scalar Network.dyn_peer[0] 	lookupHopsSig:last 	9
scalar Network.dyn_peer[0] 	lookupHopsSig:max 	52
scalar Network.dyn_peer[0] 	lookupHopsSig:min 	1
scalar Network.dyn_peer[0] 	lookupHopsSig:mean 	13.271461716937
scalar Network.dyn_peer[0] 	lookupHopsSig:timeavg 	13.683399309356
scalar Network.dyn_peer[0] 	LookupFailuresSig:max 	-nan
scalar Network.dyn_peer[0] 	LookupFailuresSig:timeavg 	-nan
