version 2
run Join-35-20130520-16:32:18-32715
attr configname Join
attr datetime 20130520-16:32:18
attr experiment "\"Join\""
attr inifile omnetpp.ini
attr iterationvars $0=256
attr iterationvars2 "$0=256, $repetition=5"
attr measurement $0=256
attr network Network
attr processid 32715
attr repetition 5
attr replication #5
attr resultdir results
attr runnumber 35
attr seedset 35

scalar Network.dyn_peer[0] 	lookupHopsSig:last 	10
scalar Network.dyn_peer[0] 	lookupHopsSig:max 	30
scalar Network.dyn_peer[0] 	lookupHopsSig:min 	1
scalar Network.dyn_peer[0] 	lookupHopsSig:mean 	7.5935162094763
scalar Network.dyn_peer[0] 	lookupHopsSig:timeavg 	7.9344946986858
scalar Network.dyn_peer[0] 	LookupFailuresSig:max 	-nan
scalar Network.dyn_peer[0] 	LookupFailuresSig:timeavg 	-nan
