version 2
run Join-52-20130520-16:32:28-32715
attr configname Join
attr datetime 20130520-16:32:28
attr experiment "\"Join\""
attr inifile omnetpp.ini
attr iterationvars $0=1024
attr iterationvars2 "$0=1024, $repetition=2"
attr measurement $0=1024
attr network Network
attr processid 32715
attr repetition 2
attr replication #2
attr resultdir results
attr runnumber 52
attr seedset 52

scalar Network.dyn_peer[0] 	lookupHopsSig:last 	5
scalar Network.dyn_peer[0] 	lookupHopsSig:max 	39
scalar Network.dyn_peer[0] 	lookupHopsSig:min 	1
scalar Network.dyn_peer[0] 	lookupHopsSig:mean 	13.922639362912
scalar Network.dyn_peer[0] 	lookupHopsSig:timeavg 	13.977253569724
scalar Network.dyn_peer[0] 	LookupFailuresSig:max 	-nan
scalar Network.dyn_peer[0] 	LookupFailuresSig:timeavg 	-nan
