version 2
run Join-6-20130520-16:32:10-32715
attr configname Join
attr datetime 20130520-16:32:10
attr experiment "\"Join\""
attr inifile omnetpp.ini
attr iterationvars $0=32
attr iterationvars2 "$0=32, $repetition=6"
attr measurement $0=32
attr network Network
attr processid 32715
attr repetition 6
attr replication #6
attr resultdir results
attr runnumber 6
attr seedset 6

scalar Network.dyn_peer[0] 	lookupHopsSig:last 	2
scalar Network.dyn_peer[0] 	lookupHopsSig:max 	8
scalar Network.dyn_peer[0] 	lookupHopsSig:min 	0
scalar Network.dyn_peer[0] 	lookupHopsSig:mean 	2.4794520547945
scalar Network.dyn_peer[0] 	lookupHopsSig:timeavg 	2.4048513323753
scalar Network.dyn_peer[0] 	LookupFailuresSig:max 	-nan
scalar Network.dyn_peer[0] 	LookupFailuresSig:timeavg 	-nan
