version 2
run Join-66-20130520-16:32:51-32715
attr configname Join
attr datetime 20130520-16:32:51
attr experiment "\"Join\""
attr inifile omnetpp.ini
attr iterationvars $0=2048
attr iterationvars2 "$0=2048, $repetition=6"
attr measurement $0=2048
attr network Network
attr processid 32715
attr repetition 6
attr replication #6
attr resultdir results
attr runnumber 66
attr seedset 66

scalar Network.dyn_peer[0] 	lookupHopsSig:last 	19
scalar Network.dyn_peer[0] 	lookupHopsSig:max 	83
scalar Network.dyn_peer[0] 	lookupHopsSig:min 	1
scalar Network.dyn_peer[0] 	lookupHopsSig:mean 	19.21528525296
scalar Network.dyn_peer[0] 	lookupHopsSig:timeavg 	19.711547234424
scalar Network.dyn_peer[0] 	LookupFailuresSig:max 	-nan
scalar Network.dyn_peer[0] 	LookupFailuresSig:timeavg 	-nan
