version 2
run Join-51-20130520-16:32:27-32715
attr configname Join
attr datetime 20130520-16:32:27
attr experiment "\"Join\""
attr inifile omnetpp.ini
attr iterationvars $0=1024
attr iterationvars2 "$0=1024, $repetition=1"
attr measurement $0=1024
attr network Network
attr processid 32715
attr repetition 1
attr replication #1
attr resultdir results
attr runnumber 51
attr seedset 51

scalar Network.dyn_peer[0] 	lookupHopsSig:last 	21
scalar Network.dyn_peer[0] 	lookupHopsSig:max 	52
scalar Network.dyn_peer[0] 	lookupHopsSig:min 	1
scalar Network.dyn_peer[0] 	lookupHopsSig:mean 	14.922651933702
scalar Network.dyn_peer[0] 	lookupHopsSig:timeavg 	15.818975698555
scalar Network.dyn_peer[0] 	LookupFailuresSig:max 	-nan
scalar Network.dyn_peer[0] 	LookupFailuresSig:timeavg 	-nan
