version 2
run Stability-norelink-114-20130525-23:21:38-22103
attr configname Stability-norelink
attr datetime 20130525-23:21:38
attr experiment Stability
attr inifile omnetpp.ini
attr iterationvars $0=1e-5
attr iterationvars2 "$0=1e-5, $repetition=4"
attr measurement $0=1e-5
attr network Network
attr processid 22103
attr repetition 4
attr replication #4
attr resultdir results
attr runnumber 114
attr seedset 114

scalar Network.dyn_peer[0] 	lookupTimeSig:mean 	0.4681660899654
scalar Network.dyn_peer[0] 	lookupStabilitySig:mean 	0.47102076119411
scalar Network.dyn_peer[0] 	lookupHopsSig:mean 	4.2352941176471
scalar Network.dyn_peer[1] 	lookupTimeSig:mean 	0.46743421052632
scalar Network.dyn_peer[1] 	lookupStabilitySig:mean 	0.47574013157895
scalar Network.dyn_peer[1] 	lookupHopsSig:mean 	4.1973684210526
scalar Network.dyn_peer[2] 	lookupTimeSig:mean 	0.49762711864407
scalar Network.dyn_peer[2] 	lookupStabilitySig:mean 	0.44213747644829
scalar Network.dyn_peer[2] 	lookupHopsSig:mean 	4.464406779661
scalar Network.dyn_peer[3] 	lookupTimeSig:mean 	0.4878125
scalar Network.dyn_peer[3] 	lookupStabilitySig:mean 	0.45555555536412
scalar Network.dyn_peer[3] 	lookupHopsSig:mean 	4.3625
scalar Network.dyn_peer[4] 	lookupTimeSig:mean 	0.47403846153846
scalar Network.dyn_peer[4] 	lookupStabilitySig:mean 	0.46777065518575
scalar Network.dyn_peer[4] 	lookupHopsSig:mean 	4.2596153846154
scalar Network.dyn_peer[5] 	lookupTimeSig:mean 	0.49084507042254
scalar Network.dyn_peer[5] 	lookupStabilitySig:mean 	0.44498239426126
scalar Network.dyn_peer[5] 	lookupHopsSig:mean 	4.443661971831
scalar Network.dyn_peer[6] 	lookupTimeSig:mean 	0.4703125
scalar Network.dyn_peer[6] 	lookupStabilitySig:mean 	0.47899305550382
scalar Network.dyn_peer[6] 	lookupHopsSig:mean 	4.171875
scalar Network.dyn_peer[7] 	lookupTimeSig:mean 	0.48108108108108
scalar Network.dyn_peer[7] 	lookupStabilitySig:mean 	0.45650337837838
scalar Network.dyn_peer[7] 	lookupHopsSig:mean 	4.347972972973
scalar Network.dyn_peer[8] 	lookupTimeSig:mean 	0.46507936507936
scalar Network.dyn_peer[8] 	lookupStabilitySig:mean 	0.48783068779915
scalar Network.dyn_peer[8] 	lookupHopsSig:mean 	4.0984126984127
scalar Network.dyn_peer[9] 	lookupTimeSig:mean 	0.46528662420382
scalar Network.dyn_peer[9] 	lookupStabilitySig:mean 	0.47974168435688
scalar Network.dyn_peer[9] 	lookupHopsSig:mean 	4.1624203821656
scalar Network.dyn_peer[10] 	lookupTimeSig:mean 	0.48350168350168
scalar Network.dyn_peer[10] 	lookupStabilitySig:mean 	0.45356341182985
scalar Network.dyn_peer[10] 	lookupHopsSig:mean 	4.3737373737374
scalar Network.dyn_peer[11] 	lookupTimeSig:mean 	0.47467948717949
scalar Network.dyn_peer[11] 	lookupStabilitySig:mean 	0.46674679487179
scalar Network.dyn_peer[11] 	lookupHopsSig:mean 	4.2660256410256
scalar Network.dyn_peer[12] 	lookupTimeSig:mean 	0.46869009584665
scalar Network.dyn_peer[12] 	lookupStabilitySig:mean 	0.47275470354306
scalar Network.dyn_peer[12] 	lookupHopsSig:mean 	4.223642172524
scalar Network.dyn_peer[13] 	lookupTimeSig:mean 	0.49896907216495
scalar Network.dyn_peer[13] 	lookupStabilitySig:mean 	0.42998281786942
scalar Network.dyn_peer[13] 	lookupHopsSig:mean 	4.5601374570447
scalar Network.dyn_peer[14] 	lookupTimeSig:mean 	0.51385135135135
scalar Network.dyn_peer[14] 	lookupStabilitySig:mean 	0.42140578065772
scalar Network.dyn_peer[14] 	lookupHopsSig:mean 	4.6351351351351
scalar Network.dyn_peer[15] 	lookupTimeSig:mean 	0.50174216027875
scalar Network.dyn_peer[15] 	lookupStabilitySig:mean 	0.42900696853727
scalar Network.dyn_peer[15] 	lookupHopsSig:mean 	4.5714285714286
scalar Network.dyn_peer[16] 	lookupTimeSig:mean 	0.51385135135135
scalar Network.dyn_peer[16] 	lookupStabilitySig:mean 	0.41877815308603
scalar Network.dyn_peer[16] 	lookupHopsSig:mean 	4.652027027027
scalar Network.dyn_peer[17] 	lookupTimeSig:mean 	0.51843971631206
scalar Network.dyn_peer[17] 	lookupStabilitySig:mean 	0.39893617021277
scalar Network.dyn_peer[17] 	lookupHopsSig:mean 	4.8085106382979
scalar Network.dyn_peer[18] 	lookupTimeSig:mean 	0.49568345323741
scalar Network.dyn_peer[18] 	lookupStabilitySig:mean 	0.4419464427147
scalar Network.dyn_peer[18] 	lookupHopsSig:mean 	4.4712230215827
scalar Network.dyn_peer[19] 	lookupTimeSig:mean 	0.44955489614243
scalar Network.dyn_peer[19] 	lookupStabilitySig:mean 	0.50832509065948
scalar Network.dyn_peer[19] 	lookupHopsSig:mean 	3.9347181008902
scalar Network.dyn_peer[20] 	lookupTimeSig:mean 	0.4753125
scalar Network.dyn_peer[20] 	lookupStabilitySig:mean 	0.46757812495343
scalar Network.dyn_peer[20] 	lookupHopsSig:mean 	4.2625
scalar Network.dyn_peer[21] 	lookupTimeSig:mean 	0.48862876254181
scalar Network.dyn_peer[21] 	lookupStabilitySig:mean 	0.44797473054466
scalar Network.dyn_peer[21] 	lookupHopsSig:mean 	4.4214046822742
scalar Network.dyn_peer[22] 	lookupTimeSig:mean 	0.47006578947368
scalar Network.dyn_peer[22] 	lookupStabilitySig:mean 	0.47752192974287
scalar Network.dyn_peer[22] 	lookupHopsSig:mean 	4.1842105263158
scalar Network.dyn_peer[23] 	lookupTimeSig:mean 	0.51444444444444
scalar Network.dyn_peer[23] 	lookupStabilitySig:mean 	0.41543209872864
scalar Network.dyn_peer[23] 	lookupHopsSig:mean 	4.6777777777778
scalar Network.dyn_peer[24] 	lookupTimeSig:mean 	0.48915254237288
scalar Network.dyn_peer[24] 	lookupStabilitySig:mean 	0.44679849334693
scalar Network.dyn_peer[24] 	lookupHopsSig:mean 	4.4305084745763
scalar Network.dyn_peer[25] 	lookupTimeSig:mean 	0.49246575342466
scalar Network.dyn_peer[25] 	lookupStabilitySig:mean 	0.44135273972603
scalar Network.dyn_peer[25] 	lookupHopsSig:mean 	4.4691780821918
scalar Network.dyn_peer[26] 	lookupTimeSig:mean 	0.47142857142857
scalar Network.dyn_peer[26] 	lookupStabilitySig:mean 	0.46685606057381
scalar Network.dyn_peer[26] 	lookupHopsSig:mean 	4.2662337662338
scalar Network.dyn_peer[27] 	lookupTimeSig:mean 	0.49180327868852
scalar Network.dyn_peer[27] 	lookupStabilitySig:mean 	0.4462659380475
scalar Network.dyn_peer[27] 	lookupHopsSig:mean 	4.4327868852459
scalar Network.dyn_peer[28] 	lookupTimeSig:mean 	0.45512820512821
scalar Network.dyn_peer[28] 	lookupStabilitySig:mean 	0.50160256410256
scalar Network.dyn_peer[28] 	lookupHopsSig:mean 	3.9871794871795
scalar Network.dyn_peer[29] 	lookupTimeSig:mean 	0.51042345276873
scalar Network.dyn_peer[29] 	lookupStabilitySig:mean 	0.41476655800005
scalar Network.dyn_peer[29] 	lookupHopsSig:mean 	4.6840390879479
scalar Network.dyn_peer[30] 	lookupTimeSig:mean 	0.48059210526316
scalar Network.dyn_peer[30] 	lookupStabilitySig:mean 	0.4599780701591
scalar Network.dyn_peer[30] 	lookupHopsSig:mean 	4.3223684210526
scalar Network.dyn_peer[31] 	lookupTimeSig:mean 	0.4671186440678
scalar Network.dyn_peer[31] 	lookupStabilitySig:mean 	0.47608286248425
scalar Network.dyn_peer[31] 	lookupHopsSig:mean 	4.1932203389831
