version 2
run Stability-norelink-41-20130525-23:16:47-22103
attr configname Stability-norelink
attr datetime 20130525-23:16:47
attr experiment Stability
attr inifile omnetpp.ini
attr iterationvars $0=1e2
attr iterationvars2 "$0=1e2, $repetition=1"
attr measurement $0=1e2
attr network Network
attr processid 22103
attr repetition 1
attr replication #1
attr resultdir results
attr runnumber 41
attr seedset 41

scalar Network.dyn_peer[0] 	lookupTimeSig:mean 	0.31489361702128
scalar Network.dyn_peer[0] 	lookupStabilitySig:mean 	0.68218085106383
scalar Network.dyn_peer[0] 	lookupHopsSig:mean 	2.5425531914894
scalar Network.dyn_peer[1] 	lookupTimeSig:mean 	0.33843416370107
scalar Network.dyn_peer[1] 	lookupStabilitySig:mean 	0.65035587188612
scalar Network.dyn_peer[1] 	lookupHopsSig:mean 	2.797153024911
scalar Network.dyn_peer[2] 	lookupTimeSig:mean 	0.31743421052632
scalar Network.dyn_peer[2] 	lookupStabilitySig:mean 	0.68206323092607
scalar Network.dyn_peer[2] 	lookupHopsSig:mean 	2.5460526315789
scalar Network.dyn_peer[3] 	lookupTimeSig:mean 	0.35652173913043
scalar Network.dyn_peer[3] 	lookupStabilitySig:mean 	0.62137681154021
scalar Network.dyn_peer[3] 	lookupHopsSig:mean 	3.0326086956522
scalar Network.dyn_peer[4] 	lookupTimeSig:mean 	0.33345070422535
scalar Network.dyn_peer[4] 	lookupStabilitySig:mean 	0.66167840364219
scalar Network.dyn_peer[4] 	lookupHopsSig:mean 	2.7112676056338
scalar Network.dyn_peer[5] 	lookupTimeSig:mean 	0.34307116104869
scalar Network.dyn_peer[5] 	lookupStabilitySig:mean 	0.64102163961094
scalar Network.dyn_peer[5] 	lookupHopsSig:mean 	2.87265917603
scalar Network.dyn_peer[6] 	lookupTimeSig:mean 	0.31985559566787
scalar Network.dyn_peer[6] 	lookupStabilitySig:mean 	0.67338547933618
scalar Network.dyn_peer[6] 	lookupHopsSig:mean 	2.6137184115523
scalar Network.dyn_peer[7] 	lookupTimeSig:mean 	0.34868421052632
scalar Network.dyn_peer[7] 	lookupStabilitySig:mean 	0.63719846489594
scalar Network.dyn_peer[7] 	lookupHopsSig:mean 	2.9046052631579
scalar Network.dyn_peer[8] 	lookupTimeSig:mean 	0.31038961038961
scalar Network.dyn_peer[8] 	lookupStabilitySig:mean 	0.68998015872747
scalar Network.dyn_peer[8] 	lookupHopsSig:mean 	2.4805194805195
scalar Network.dyn_peer[9] 	lookupTimeSig:mean 	0.32671232876712
scalar Network.dyn_peer[9] 	lookupStabilitySig:mean 	0.668283866055
scalar Network.dyn_peer[9] 	lookupHopsSig:mean 	2.6541095890411
scalar Network.dyn_peer[10] 	lookupTimeSig:mean 	0.34571428571429
scalar Network.dyn_peer[10] 	lookupStabilitySig:mean 	0.64017857142857
scalar Network.dyn_peer[10] 	lookupHopsSig:mean 	2.8785714285714
scalar Network.dyn_peer[11] 	lookupTimeSig:mean 	0.36449275362319
scalar Network.dyn_peer[11] 	lookupStabilitySig:mean 	0.61770330110322
scalar Network.dyn_peer[11] 	lookupHopsSig:mean 	3.0615942028986
scalar Network.dyn_peer[12] 	lookupTimeSig:mean 	0.33834586466165
scalar Network.dyn_peer[12] 	lookupStabilitySig:mean 	0.65110693390208
scalar Network.dyn_peer[12] 	lookupHopsSig:mean 	2.796992481203
scalar Network.dyn_peer[13] 	lookupTimeSig:mean 	0.33506944444444
scalar Network.dyn_peer[13] 	lookupStabilitySig:mean 	0.65330825611535
scalar Network.dyn_peer[13] 	lookupHopsSig:mean 	2.7777777777778
scalar Network.dyn_peer[14] 	lookupTimeSig:mean 	0.34169611307421
scalar Network.dyn_peer[14] 	lookupStabilitySig:mean 	0.64021397721641
scalar Network.dyn_peer[14] 	lookupHopsSig:mean 	2.8798586572438
scalar Network.dyn_peer[15] 	lookupTimeSig:mean 	0.35652173913044
scalar Network.dyn_peer[15] 	lookupStabilitySig:mean 	0.62635869554419
scalar Network.dyn_peer[15] 	lookupHopsSig:mean 	2.9927536231884
scalar Network.dyn_peer[16] 	lookupTimeSig:mean 	0.33664383561644
scalar Network.dyn_peer[16] 	lookupStabilitySig:mean 	0.65173135463097
scalar Network.dyn_peer[16] 	lookupHopsSig:mean 	2.7876712328767
scalar Network.dyn_peer[17] 	lookupTimeSig:mean 	0.35214521452145
scalar Network.dyn_peer[17] 	lookupStabilitySig:mean 	0.63389255583483
scalar Network.dyn_peer[17] 	lookupHopsSig:mean 	2.9306930693069
scalar Network.dyn_peer[18] 	lookupTimeSig:mean 	0.31972789115646
scalar Network.dyn_peer[18] 	lookupStabilitySig:mean 	0.6749338624226
scalar Network.dyn_peer[18] 	lookupHopsSig:mean 	2.6020408163265
scalar Network.dyn_peer[19] 	lookupTimeSig:mean 	0.32970297029703
scalar Network.dyn_peer[19] 	lookupStabilitySig:mean 	0.65960762735837
scalar Network.dyn_peer[19] 	lookupHopsSig:mean 	2.7260726072607
scalar Network.dyn_peer[20] 	lookupTimeSig:mean 	0.31245421245421
scalar Network.dyn_peer[20] 	lookupStabilitySig:mean 	0.6852360602209
scalar Network.dyn_peer[20] 	lookupHopsSig:mean 	2.5201465201465
scalar Network.dyn_peer[21] 	lookupTimeSig:mean 	0.3404181184669
scalar Network.dyn_peer[21] 	lookupStabilitySig:mean 	0.65040650405639
scalar Network.dyn_peer[21] 	lookupHopsSig:mean 	2.7979094076655
scalar Network.dyn_peer[22] 	lookupTimeSig:mean 	0.33183520599251
scalar Network.dyn_peer[22] 	lookupStabilitySig:mean 	0.65667915098676
scalar Network.dyn_peer[22] 	lookupHopsSig:mean 	2.749063670412
scalar Network.dyn_peer[23] 	lookupTimeSig:mean 	0.3422641509434
scalar Network.dyn_peer[23] 	lookupStabilitySig:mean 	0.64171907755564
scalar Network.dyn_peer[23] 	lookupHopsSig:mean 	2.8679245283019
scalar Network.dyn_peer[24] 	lookupTimeSig:mean 	0.33772241992883
scalar Network.dyn_peer[24] 	lookupStabilitySig:mean 	0.65134440489723
scalar Network.dyn_peer[24] 	lookupHopsSig:mean 	2.7900355871886
scalar Network.dyn_peer[25] 	lookupTimeSig:mean 	0.32826855123675
scalar Network.dyn_peer[25] 	lookupStabilitySig:mean 	0.66362387118302
scalar Network.dyn_peer[25] 	lookupHopsSig:mean 	2.6925795053004
scalar Network.dyn_peer[26] 	lookupTimeSig:mean 	0.3472027972028
scalar Network.dyn_peer[26] 	lookupStabilitySig:mean 	0.63791763787711
scalar Network.dyn_peer[26] 	lookupHopsSig:mean 	2.8986013986014
scalar Network.dyn_peer[27] 	lookupTimeSig:mean 	0.32693726937269
scalar Network.dyn_peer[27] 	lookupStabilitySig:mean 	0.66266912667294
scalar Network.dyn_peer[27] 	lookupHopsSig:mean 	2.7011070110701
scalar Network.dyn_peer[28] 	lookupTimeSig:mean 	0.33444816053512
scalar Network.dyn_peer[28] 	lookupStabilitySig:mean 	0.65338164246501
scalar Network.dyn_peer[28] 	lookupHopsSig:mean 	2.7759197324415
scalar Network.dyn_peer[29] 	lookupTimeSig:mean 	0.35390070921986
scalar Network.dyn_peer[29] 	lookupStabilitySig:mean 	0.63076241134752
scalar Network.dyn_peer[29] 	lookupHopsSig:mean 	2.9539007092199
scalar Network.dyn_peer[30] 	lookupTimeSig:mean 	0.32645914396887
scalar Network.dyn_peer[30] 	lookupStabilitySig:mean 	0.66104626026483
scalar Network.dyn_peer[30] 	lookupHopsSig:mean 	2.7120622568093
scalar Network.dyn_peer[31] 	lookupTimeSig:mean 	0.33985507246377
scalar Network.dyn_peer[31] 	lookupStabilitySig:mean 	0.64909420289315
scalar Network.dyn_peer[31] 	lookupHopsSig:mean 	2.8079710144928
