version 2
run Stability-norelink-92-20130525-23:20:08-22103
attr configname Stability-norelink
attr datetime 20130525-23:20:08
attr experiment Stability
attr inifile omnetpp.ini
attr iterationvars $0=1e-3
attr iterationvars2 "$0=1e-3, $repetition=2"
attr measurement $0=1e-3
attr network Network
attr processid 22103
attr repetition 2
attr replication #2
attr resultdir results
attr runnumber 92
attr seedset 92

scalar Network.dyn_peer[0] 	lookupTimeSig:mean 	0.47605177993527
scalar Network.dyn_peer[0] 	lookupStabilitySig:mean 	0.46912081973645
scalar Network.dyn_peer[0] 	lookupHopsSig:mean 	4.252427184466
scalar Network.dyn_peer[1] 	lookupTimeSig:mean 	0.49857651245552
scalar Network.dyn_peer[1] 	lookupStabilitySig:mean 	0.44039145907473
scalar Network.dyn_peer[1] 	lookupHopsSig:mean 	4.4768683274021
scalar Network.dyn_peer[2] 	lookupTimeSig:mean 	0.48996763754045
scalar Network.dyn_peer[2] 	lookupStabilitySig:mean 	0.44012944983819
scalar Network.dyn_peer[2] 	lookupHopsSig:mean 	4.4789644012945
scalar Network.dyn_peer[3] 	lookupTimeSig:mean 	0.49770992366412
scalar Network.dyn_peer[3] 	lookupStabilitySig:mean 	0.42864715859635
scalar Network.dyn_peer[3] 	lookupHopsSig:mean 	4.5725190839695
scalar Network.dyn_peer[4] 	lookupTimeSig:mean 	0.47042253521127
scalar Network.dyn_peer[4] 	lookupStabilitySig:mean 	0.47667253521127
scalar Network.dyn_peer[4] 	lookupHopsSig:mean 	4.1866197183099
scalar Network.dyn_peer[5] 	lookupTimeSig:mean 	0.44680134680135
scalar Network.dyn_peer[5] 	lookupStabilitySig:mean 	0.50018705573146
scalar Network.dyn_peer[5] 	lookupHopsSig:mean 	4
scalar Network.dyn_peer[6] 	lookupTimeSig:mean 	0.46869009584665
scalar Network.dyn_peer[6] 	lookupStabilitySig:mean 	0.4844249201278
scalar Network.dyn_peer[6] 	lookupHopsSig:mean 	4.1246006389776
scalar Network.dyn_peer[7] 	lookupTimeSig:mean 	0.48082191780822
scalar Network.dyn_peer[7] 	lookupStabilitySig:mean 	0.45633561643836
scalar Network.dyn_peer[7] 	lookupHopsSig:mean 	4.3493150684932
scalar Network.dyn_peer[8] 	lookupTimeSig:mean 	0.44903225806452
scalar Network.dyn_peer[8] 	lookupStabilitySig:mean 	0.50501792111224
scalar Network.dyn_peer[8] 	lookupHopsSig:mean 	3.9612903225806
scalar Network.dyn_peer[9] 	lookupTimeSig:mean 	0.4621875
scalar Network.dyn_peer[9] 	lookupStabilitySig:mean 	0.48368055555038
scalar Network.dyn_peer[9] 	lookupHopsSig:mean 	4.13125
scalar Network.dyn_peer[10] 	lookupTimeSig:mean 	0.46396103896104
scalar Network.dyn_peer[10] 	lookupStabilitySig:mean 	0.47555916301616
scalar Network.dyn_peer[10] 	lookupHopsSig:mean 	4.1980519480519
scalar Network.dyn_peer[11] 	lookupTimeSig:mean 	0.48253424657534
scalar Network.dyn_peer[11] 	lookupStabilitySig:mean 	0.46037861487943
scalar Network.dyn_peer[11] 	lookupHopsSig:mean 	4.3184931506849
scalar Network.dyn_peer[12] 	lookupTimeSig:mean 	0.46012658227848
scalar Network.dyn_peer[12] 	lookupStabilitySig:mean 	0.48329817150024
scalar Network.dyn_peer[12] 	lookupHopsSig:mean 	4.1360759493671
scalar Network.dyn_peer[13] 	lookupTimeSig:mean 	0.48044871794872
scalar Network.dyn_peer[13] 	lookupStabilitySig:mean 	0.45886752116852
scalar Network.dyn_peer[13] 	lookupHopsSig:mean 	4.3365384615385
scalar Network.dyn_peer[14] 	lookupTimeSig:mean 	0.44845679012346
scalar Network.dyn_peer[14] 	lookupStabilitySig:mean 	0.50998799719008
scalar Network.dyn_peer[14] 	lookupHopsSig:mean 	3.9228395061728
scalar Network.dyn_peer[15] 	lookupTimeSig:mean 	0.45911949685535
scalar Network.dyn_peer[15] 	lookupStabilitySig:mean 	0.48807651983023
scalar Network.dyn_peer[15] 	lookupHopsSig:mean 	4.1037735849057
scalar Network.dyn_peer[16] 	lookupTimeSig:mean 	0.46688524590164
scalar Network.dyn_peer[16] 	lookupStabilitySig:mean 	0.47755009106925
scalar Network.dyn_peer[16] 	lookupHopsSig:mean 	4.1803278688525
scalar Network.dyn_peer[17] 	lookupTimeSig:mean 	0.4397476340694
scalar Network.dyn_peer[17] 	lookupStabilitySig:mean 	0.51239922887143
scalar Network.dyn_peer[17] 	lookupHopsSig:mean 	3.9022082018927
scalar Network.dyn_peer[18] 	lookupTimeSig:mean 	0.45233333333333
scalar Network.dyn_peer[18] 	lookupStabilitySig:mean 	0.49430555552244
scalar Network.dyn_peer[18] 	lookupHopsSig:mean 	4.0466666666667
scalar Network.dyn_peer[19] 	lookupTimeSig:mean 	0.45335463258786
scalar Network.dyn_peer[19] 	lookupStabilitySig:mean 	0.50079872204473
scalar Network.dyn_peer[19] 	lookupHopsSig:mean 	3.9968051118211
scalar Network.dyn_peer[20] 	lookupTimeSig:mean 	0.48225255972696
scalar Network.dyn_peer[20] 	lookupStabilitySig:mean 	0.4586651497886
scalar Network.dyn_peer[20] 	lookupHopsSig:mean 	4.3310580204778
scalar Network.dyn_peer[21] 	lookupTimeSig:mean 	0.45432098765432
scalar Network.dyn_peer[21] 	lookupStabilitySig:mean 	0.49807098765432
scalar Network.dyn_peer[21] 	lookupHopsSig:mean 	4.0154320987654
scalar Network.dyn_peer[22] 	lookupTimeSig:mean 	0.47955271565495
scalar Network.dyn_peer[22] 	lookupStabilitySig:mean 	0.46272630451586
scalar Network.dyn_peer[22] 	lookupHopsSig:mean 	4.3035143769968
scalar Network.dyn_peer[23] 	lookupTimeSig:mean 	0.46478405315615
scalar Network.dyn_peer[23] 	lookupStabilitySig:mean 	0.48648025100413
scalar Network.dyn_peer[23] 	lookupHopsSig:mean 	4.109634551495
scalar Network.dyn_peer[24] 	lookupTimeSig:mean 	0.47892857142857
scalar Network.dyn_peer[24] 	lookupStabilitySig:mean 	0.45421626982944
scalar Network.dyn_peer[24] 	lookupHopsSig:mean 	4.3678571428571
scalar Network.dyn_peer[25] 	lookupTimeSig:mean 	0.44032258064516
scalar Network.dyn_peer[25] 	lookupStabilitySig:mean 	0.50730286738084
scalar Network.dyn_peer[25] 	lookupHopsSig:mean 	3.941935483871
scalar Network.dyn_peer[26] 	lookupTimeSig:mean 	0.47931034482759
scalar Network.dyn_peer[26] 	lookupStabilitySig:mean 	0.45842911875967
scalar Network.dyn_peer[26] 	lookupHopsSig:mean 	4.3344827586207
scalar Network.dyn_peer[27] 	lookupTimeSig:mean 	0.45166666666667
scalar Network.dyn_peer[27] 	lookupStabilitySig:mean 	0.49958333333333
scalar Network.dyn_peer[27] 	lookupHopsSig:mean 	4.0033333333333
scalar Network.dyn_peer[28] 	lookupTimeSig:mean 	0.48
scalar Network.dyn_peer[28] 	lookupStabilitySig:mean 	0.45646630232451
scalar Network.dyn_peer[28] 	lookupHopsSig:mean 	4.3508196721311
scalar Network.dyn_peer[29] 	lookupTimeSig:mean 	0.44934640522876
scalar Network.dyn_peer[29] 	lookupStabilitySig:mean 	0.50694444444444
scalar Network.dyn_peer[29] 	lookupHopsSig:mean 	3.9444444444444
scalar Network.dyn_peer[30] 	lookupTimeSig:mean 	0.44802631578947
scalar Network.dyn_peer[30] 	lookupStabilitySig:mean 	0.49506578947368
scalar Network.dyn_peer[30] 	lookupHopsSig:mean 	4.0394736842105
scalar Network.dyn_peer[31] 	lookupTimeSig:mean 	0.49236363636364
scalar Network.dyn_peer[31] 	lookupStabilitySig:mean 	0.44570707044818
scalar Network.dyn_peer[31] 	lookupHopsSig:mean 	4.4436363636364
