version 2
run Stability-norelink-131-20130525-23:22:47-22103
attr configname Stability-norelink
attr datetime 20130525-23:22:47
attr experiment Stability
attr inifile omnetpp.ini
attr iterationvars $0=1e-7
attr iterationvars2 "$0=1e-7, $repetition=1"
attr measurement $0=1e-7
attr network Network
attr processid 22103
attr repetition 1
attr replication #1
attr resultdir results
attr runnumber 131
attr seedset 131

scalar Network.dyn_peer[0] 	lookupTimeSig:mean 	0.45117845117845
scalar Network.dyn_peer[0] 	lookupStabilitySig:mean 	0.49335952098121
scalar Network.dyn_peer[0] 	lookupHopsSig:mean 	4.0606060606061
scalar Network.dyn_peer[1] 	lookupTimeSig:mean 	0.4711743772242
scalar Network.dyn_peer[1] 	lookupStabilitySig:mean 	0.47553380782918
scalar Network.dyn_peer[1] 	lookupHopsSig:mean 	4.1957295373665
scalar Network.dyn_peer[2] 	lookupTimeSig:mean 	0.47954545454546
scalar Network.dyn_peer[2] 	lookupStabilitySig:mean 	0.46428571428571
scalar Network.dyn_peer[2] 	lookupHopsSig:mean 	4.2857142857143
scalar Network.dyn_peer[3] 	lookupTimeSig:mean 	0.48526645768025
scalar Network.dyn_peer[3] 	lookupStabilitySig:mean 	0.45406652730087
scalar Network.dyn_peer[3] 	lookupHopsSig:mean 	4.3699059561129
scalar Network.dyn_peer[4] 	lookupTimeSig:mean 	0.50106382978723
scalar Network.dyn_peer[4] 	lookupStabilitySig:mean 	0.43045705276812
scalar Network.dyn_peer[4] 	lookupHopsSig:mean 	4.5602836879433
scalar Network.dyn_peer[5] 	lookupTimeSig:mean 	0.48385964912281
scalar Network.dyn_peer[5] 	lookupStabilitySig:mean 	0.45867446389115
scalar Network.dyn_peer[5] 	lookupHopsSig:mean 	4.3333333333333
scalar Network.dyn_peer[6] 	lookupTimeSig:mean 	0.47540453074434
scalar Network.dyn_peer[6] 	lookupStabilitySig:mean 	0.46966019417476
scalar Network.dyn_peer[6] 	lookupHopsSig:mean 	4.2427184466019
scalar Network.dyn_peer[7] 	lookupTimeSig:mean 	0.48732876712329
scalar Network.dyn_peer[7] 	lookupStabilitySig:mean 	0.45457572293506
scalar Network.dyn_peer[7] 	lookupHopsSig:mean 	4.3664383561644
scalar Network.dyn_peer[8] 	lookupTimeSig:mean 	0.48705501618123
scalar Network.dyn_peer[8] 	lookupStabilitySig:mean 	0.4502876663044
scalar Network.dyn_peer[8] 	lookupHopsSig:mean 	4.3980582524272
scalar Network.dyn_peer[9] 	lookupTimeSig:mean 	0.46625386996904
scalar Network.dyn_peer[9] 	lookupStabilitySig:mean 	0.48073615385191
scalar Network.dyn_peer[9] 	lookupHopsSig:mean 	4.1609907120743
scalar Network.dyn_peer[10] 	lookupTimeSig:mean 	0.47954545454545
scalar Network.dyn_peer[10] 	lookupStabilitySig:mean 	0.46004689736413
scalar Network.dyn_peer[10] 	lookupHopsSig:mean 	4.3246753246753
scalar Network.dyn_peer[11] 	lookupTimeSig:mean 	0.4884476534296
scalar Network.dyn_peer[11] 	lookupStabilitySig:mean 	0.44083433606349
scalar Network.dyn_peer[11] 	lookupHopsSig:mean 	4.4765342960289
scalar Network.dyn_peer[12] 	lookupTimeSig:mean 	0.47258064516129
scalar Network.dyn_peer[12] 	lookupStabilitySig:mean 	0.47087813610992
scalar Network.dyn_peer[12] 	lookupHopsSig:mean 	4.2354838709677
scalar Network.dyn_peer[13] 	lookupTimeSig:mean 	0.48496503496504
scalar Network.dyn_peer[13] 	lookupStabilitySig:mean 	0.4493006993007
scalar Network.dyn_peer[13] 	lookupHopsSig:mean 	4.4055944055944
scalar Network.dyn_peer[14] 	lookupTimeSig:mean 	0.47799352750809
scalar Network.dyn_peer[14] 	lookupStabilitySig:mean 	0.46372707655901
scalar Network.dyn_peer[14] 	lookupHopsSig:mean 	4.2912621359223
scalar Network.dyn_peer[15] 	lookupTimeSig:mean 	0.45681818181818
scalar Network.dyn_peer[15] 	lookupStabilitySig:mean 	0.49328102452027
scalar Network.dyn_peer[15] 	lookupHopsSig:mean 	4.0551948051948
scalar Network.dyn_peer[16] 	lookupTimeSig:mean 	0.48350515463918
scalar Network.dyn_peer[16] 	lookupStabilitySig:mean 	0.45704467353952
scalar Network.dyn_peer[16] 	lookupHopsSig:mean 	4.3436426116838
scalar Network.dyn_peer[17] 	lookupTimeSig:mean 	0.46739811912226
scalar Network.dyn_peer[17] 	lookupStabilitySig:mean 	0.475269940673
scalar Network.dyn_peer[17] 	lookupHopsSig:mean 	4.2006269592476
scalar Network.dyn_peer[18] 	lookupTimeSig:mean 	0.48451178451178
scalar Network.dyn_peer[18] 	lookupStabilitySig:mean 	0.44668911332233
scalar Network.dyn_peer[18] 	lookupHopsSig:mean 	4.4276094276094
scalar Network.dyn_peer[19] 	lookupTimeSig:mean 	0.45859872611465
scalar Network.dyn_peer[19] 	lookupStabilitySig:mean 	0.48916312805407
scalar Network.dyn_peer[19] 	lookupHopsSig:mean 	4.0891719745223
scalar Network.dyn_peer[20] 	lookupTimeSig:mean 	0.48831615120275
scalar Network.dyn_peer[20] 	lookupStabilitySig:mean 	0.44473081325338
scalar Network.dyn_peer[20] 	lookupHopsSig:mean 	4.4432989690722
scalar Network.dyn_peer[21] 	lookupTimeSig:mean 	0.46688102893891
scalar Network.dyn_peer[21] 	lookupStabilitySig:mean 	0.48387817056233
scalar Network.dyn_peer[21] 	lookupHopsSig:mean 	4.1382636655949
scalar Network.dyn_peer[22] 	lookupTimeSig:mean 	0.51685823754789
scalar Network.dyn_peer[22] 	lookupStabilitySig:mean 	0.4065027670842
scalar Network.dyn_peer[22] 	lookupHopsSig:mean 	4.7509578544061
scalar Network.dyn_peer[23] 	lookupTimeSig:mean 	0.48152173913044
scalar Network.dyn_peer[23] 	lookupStabilitySig:mean 	0.45606884057971
scalar Network.dyn_peer[23] 	lookupHopsSig:mean 	4.3514492753623
scalar Network.dyn_peer[24] 	lookupTimeSig:mean 	0.47655172413793
scalar Network.dyn_peer[24] 	lookupStabilitySig:mean 	0.4573275862069
scalar Network.dyn_peer[24] 	lookupHopsSig:mean 	4.3413793103448
scalar Network.dyn_peer[25] 	lookupTimeSig:mean 	0.47040816326531
scalar Network.dyn_peer[25] 	lookupStabilitySig:mean 	0.47982804223794
scalar Network.dyn_peer[25] 	lookupHopsSig:mean 	4.1666666666667
scalar Network.dyn_peer[26] 	lookupTimeSig:mean 	0.45785953177258
scalar Network.dyn_peer[26] 	lookupStabilitySig:mean 	0.49098848010784
scalar Network.dyn_peer[26] 	lookupHopsSig:mean 	4.0735785953177
scalar Network.dyn_peer[27] 	lookupTimeSig:mean 	0.46883116883117
scalar Network.dyn_peer[27] 	lookupStabilitySig:mean 	0.47285353518152
scalar Network.dyn_peer[27] 	lookupHopsSig:mean 	4.2207792207792
scalar Network.dyn_peer[28] 	lookupTimeSig:mean 	0.46836734693878
scalar Network.dyn_peer[28] 	lookupStabilitySig:mean 	0.47642668169372
scalar Network.dyn_peer[28] 	lookupHopsSig:mean 	4.1904761904762
scalar Network.dyn_peer[29] 	lookupTimeSig:mean 	0.48154362416107
scalar Network.dyn_peer[29] 	lookupStabilitySig:mean 	0.46541759876797
scalar Network.dyn_peer[29] 	lookupHopsSig:mean 	4.2785234899329
scalar Network.dyn_peer[30] 	lookupTimeSig:mean 	0.4553125
scalar Network.dyn_peer[30] 	lookupStabilitySig:mean 	0.493359375
scalar Network.dyn_peer[30] 	lookupHopsSig:mean 	4.053125
scalar Network.dyn_peer[31] 	lookupTimeSig:mean 	0.46866666666667
scalar Network.dyn_peer[31] 	lookupStabilitySig:mean 	0.47925925925374
scalar Network.dyn_peer[31] 	lookupHopsSig:mean 	4.1666666666667
