version 2
run Stability-norelink-110-20130525-23:21:21-22103
attr configname Stability-norelink
attr datetime 20130525-23:21:21
attr experiment Stability
attr inifile omnetpp.ini
attr iterationvars $0=1e-5
attr iterationvars2 "$0=1e-5, $repetition=0"
attr measurement $0=1e-5
attr network Network
attr processid 22103
attr repetition 0
attr replication #0
attr resultdir results
attr runnumber 110
attr seedset 110

scalar Network.dyn_peer[0] 	lookupTimeSig:mean 	0.45625
scalar Network.dyn_peer[0] 	lookupStabilitySig:mean 	0.49766995610767
scalar Network.dyn_peer[0] 	lookupHopsSig:mean 	4.0197368421053
scalar Network.dyn_peer[1] 	lookupTimeSig:mean 	0.47762237762238
scalar Network.dyn_peer[1] 	lookupStabilitySig:mean 	0.46503496503497
scalar Network.dyn_peer[1] 	lookupHopsSig:mean 	4.2797202797203
scalar Network.dyn_peer[2] 	lookupTimeSig:mean 	0.46655518394649
scalar Network.dyn_peer[2] 	lookupStabilitySig:mean 	0.47366220735786
scalar Network.dyn_peer[2] 	lookupHopsSig:mean 	4.2107023411371
scalar Network.dyn_peer[3] 	lookupTimeSig:mean 	0.44364820846906
scalar Network.dyn_peer[3] 	lookupStabilitySig:mean 	0.51017915309446
scalar Network.dyn_peer[3] 	lookupHopsSig:mean 	3.9185667752443
scalar Network.dyn_peer[4] 	lookupTimeSig:mean 	0.47948717948718
scalar Network.dyn_peer[4] 	lookupStabilitySig:mean 	0.45848595844957
scalar Network.dyn_peer[4] 	lookupHopsSig:mean 	4.3333333333333
scalar Network.dyn_peer[5] 	lookupTimeSig:mean 	0.48440677966102
scalar Network.dyn_peer[5] 	lookupStabilitySig:mean 	0.45612052729574
scalar Network.dyn_peer[5] 	lookupHopsSig:mean 	4.3525423728814
scalar Network.dyn_peer[6] 	lookupTimeSig:mean 	0.4474358974359
scalar Network.dyn_peer[6] 	lookupStabilitySig:mean 	0.50316061249051
scalar Network.dyn_peer[6] 	lookupHopsSig:mean 	3.9775641025641
scalar Network.dyn_peer[7] 	lookupTimeSig:mean 	0.48571428571429
scalar Network.dyn_peer[7] 	lookupStabilitySig:mean 	0.4507936507518
scalar Network.dyn_peer[7] 	lookupHopsSig:mean 	4.3956043956044
scalar Network.dyn_peer[8] 	lookupTimeSig:mean 	0.49372693726937
scalar Network.dyn_peer[8] 	lookupStabilitySig:mean 	0.43275932758717
scalar Network.dyn_peer[8] 	lookupHopsSig:mean 	4.5387453874539
scalar Network.dyn_peer[9] 	lookupTimeSig:mean 	0.46280487804878
scalar Network.dyn_peer[9] 	lookupStabilitySig:mean 	0.48361280487805
scalar Network.dyn_peer[9] 	lookupHopsSig:mean 	4.1310975609756
scalar Network.dyn_peer[10] 	lookupTimeSig:mean 	0.44649681528662
scalar Network.dyn_peer[10] 	lookupStabilitySig:mean 	0.50636942675159
scalar Network.dyn_peer[10] 	lookupHopsSig:mean 	3.9490445859873
scalar Network.dyn_peer[11] 	lookupTimeSig:mean 	0.4446875
scalar Network.dyn_peer[11] 	lookupStabilitySig:mean 	0.50789930555038
scalar Network.dyn_peer[11] 	lookupHopsSig:mean 	3.9375
scalar Network.dyn_peer[12] 	lookupTimeSig:mean 	0.4656462585034
scalar Network.dyn_peer[12] 	lookupStabilitySig:mean 	0.48800075576216
scalar Network.dyn_peer[12] 	lookupHopsSig:mean 	4.0986394557823
scalar Network.dyn_peer[13] 	lookupTimeSig:mean 	0.46395759717315
scalar Network.dyn_peer[13] 	lookupStabilitySig:mean 	0.4840498625337
scalar Network.dyn_peer[13] 	lookupHopsSig:mean 	4.1378091872792
scalar Network.dyn_peer[14] 	lookupTimeSig:mean 	0.45494880546075
scalar Network.dyn_peer[14] 	lookupStabilitySig:mean 	0.49061433447099
scalar Network.dyn_peer[14] 	lookupHopsSig:mean 	4.0750853242321
scalar Network.dyn_peer[15] 	lookupTimeSig:mean 	0.44820846905537
scalar Network.dyn_peer[15] 	lookupStabilitySig:mean 	0.50588128841952
scalar Network.dyn_peer[15] 	lookupHopsSig:mean 	3.9543973941368
scalar Network.dyn_peer[16] 	lookupTimeSig:mean 	0.47090301003345
scalar Network.dyn_peer[16] 	lookupStabilitySig:mean 	0.47115384615385
scalar Network.dyn_peer[16] 	lookupHopsSig:mean 	4.2307692307692
scalar Network.dyn_peer[17] 	lookupTimeSig:mean 	0.47466666666667
scalar Network.dyn_peer[17] 	lookupStabilitySig:mean 	0.46249999995033
scalar Network.dyn_peer[17] 	lookupHopsSig:mean 	4.3033333333333
scalar Network.dyn_peer[18] 	lookupTimeSig:mean 	0.4236301369863
scalar Network.dyn_peer[18] 	lookupStabilitySig:mean 	0.53581621002865
scalar Network.dyn_peer[18] 	lookupHopsSig:mean 	3.7157534246575
scalar Network.dyn_peer[19] 	lookupTimeSig:mean 	0.45354838709677
scalar Network.dyn_peer[19] 	lookupStabilitySig:mean 	0.49377240142034
scalar Network.dyn_peer[19] 	lookupHopsSig:mean 	4.0516129032258
scalar Network.dyn_peer[20] 	lookupTimeSig:mean 	0.43582554517134
scalar Network.dyn_peer[20] 	lookupStabilitySig:mean 	0.52180685339687
scalar Network.dyn_peer[20] 	lookupHopsSig:mean 	3.8317757009346
scalar Network.dyn_peer[21] 	lookupTimeSig:mean 	0.47781456953642
scalar Network.dyn_peer[21] 	lookupStabilitySig:mean 	0.45943708609272
scalar Network.dyn_peer[21] 	lookupHopsSig:mean 	4.3245033112583
scalar Network.dyn_peer[22] 	lookupTimeSig:mean 	0.4390625
scalar Network.dyn_peer[22] 	lookupStabilitySig:mean 	0.51809895830229
scalar Network.dyn_peer[22] 	lookupHopsSig:mean 	3.85625
scalar Network.dyn_peer[23] 	lookupTimeSig:mean 	0.45132450331126
scalar Network.dyn_peer[23] 	lookupStabilitySig:mean 	0.49429727740438
scalar Network.dyn_peer[23] 	lookupHopsSig:mean 	4.046357615894
scalar Network.dyn_peer[24] 	lookupTimeSig:mean 	0.44178082191781
scalar Network.dyn_peer[24] 	lookupStabilitySig:mean 	0.50223554032919
scalar Network.dyn_peer[24] 	lookupHopsSig:mean 	3.9828767123288
scalar Network.dyn_peer[25] 	lookupTimeSig:mean 	0.42852459016393
scalar Network.dyn_peer[25] 	lookupStabilitySig:mean 	0.53451730418401
scalar Network.dyn_peer[25] 	lookupHopsSig:mean 	3.7245901639344
scalar Network.dyn_peer[26] 	lookupTimeSig:mean 	0.48166666666667
scalar Network.dyn_peer[26] 	lookupStabilitySig:mean 	0.45523148146768
scalar Network.dyn_peer[26] 	lookupHopsSig:mean 	4.36
scalar Network.dyn_peer[27] 	lookupTimeSig:mean 	0.43125
scalar Network.dyn_peer[27] 	lookupStabilitySig:mean 	0.52686631935649
scalar Network.dyn_peer[27] 	lookupHopsSig:mean 	3.7875
scalar Network.dyn_peer[28] 	lookupTimeSig:mean 	0.46610738255034
scalar Network.dyn_peer[28] 	lookupStabilitySig:mean 	0.47380686053794
scalar Network.dyn_peer[28] 	lookupHopsSig:mean 	4.2114093959732
scalar Network.dyn_peer[29] 	lookupTimeSig:mean 	0.42364217252396
scalar Network.dyn_peer[29] 	lookupStabilitySig:mean 	0.5408679445902
scalar Network.dyn_peer[29] 	lookupHopsSig:mean 	3.6741214057508
scalar Network.dyn_peer[30] 	lookupTimeSig:mean 	0.45729537366548
scalar Network.dyn_peer[30] 	lookupStabilitySig:mean 	0.48443060498221
scalar Network.dyn_peer[30] 	lookupHopsSig:mean 	4.1245551601423
scalar Network.dyn_peer[31] 	lookupTimeSig:mean 	0.44554140127389
scalar Network.dyn_peer[31] 	lookupStabilitySig:mean 	0.51026185414499
scalar Network.dyn_peer[31] 	lookupHopsSig:mean 	3.9203821656051
