version 2
run Stability-norelink-120-20130525-23:22:03-22103
attr configname Stability-norelink
attr datetime 20130525-23:22:03
attr experiment Stability
attr inifile omnetpp.ini
attr iterationvars $0=1e-6
attr iterationvars2 "$0=1e-6, $repetition=0"
attr measurement $0=1e-6
attr network Network
attr processid 22103
attr repetition 0
attr replication #0
attr resultdir results
attr runnumber 120
attr seedset 120

scalar Network.dyn_peer[0] 	lookupTimeSig:mean 	0.44375
scalar Network.dyn_peer[0] 	lookupStabilitySig:mean 	0.50594618050382
scalar Network.dyn_peer[0] 	lookupHopsSig:mean 	3.95625
scalar Network.dyn_peer[1] 	lookupTimeSig:mean 	0.47129032258065
scalar Network.dyn_peer[1] 	lookupStabilitySig:mean 	0.47226702508426
scalar Network.dyn_peer[1] 	lookupHopsSig:mean 	4.2225806451613
scalar Network.dyn_peer[2] 	lookupTimeSig:mean 	0.48745874587459
scalar Network.dyn_peer[2] 	lookupStabilitySig:mean 	0.45704987160739
scalar Network.dyn_peer[2] 	lookupHopsSig:mean 	4.3465346534653
scalar Network.dyn_peer[3] 	lookupTimeSig:mean 	0.44916943521595
scalar Network.dyn_peer[3] 	lookupStabilitySig:mean 	0.50041528239203
scalar Network.dyn_peer[3] 	lookupHopsSig:mean 	3.9966777408638
scalar Network.dyn_peer[4] 	lookupTimeSig:mean 	0.47986111111111
scalar Network.dyn_peer[4] 	lookupStabilitySig:mean 	0.46310763888889
scalar Network.dyn_peer[4] 	lookupHopsSig:mean 	4.2951388888889
scalar Network.dyn_peer[5] 	lookupTimeSig:mean 	0.45016393442623
scalar Network.dyn_peer[5] 	lookupStabilitySig:mean 	0.5
scalar Network.dyn_peer[5] 	lookupHopsSig:mean 	4
scalar Network.dyn_peer[6] 	lookupTimeSig:mean 	0.50575539568345
scalar Network.dyn_peer[6] 	lookupStabilitySig:mean 	0.43425259787402
scalar Network.dyn_peer[6] 	lookupHopsSig:mean 	4.5287769784173
scalar Network.dyn_peer[7] 	lookupTimeSig:mean 	0.4559748427673
scalar Network.dyn_peer[7] 	lookupStabilitySig:mean 	0.48977987412012
scalar Network.dyn_peer[7] 	lookupHopsSig:mean 	4.0880503144654
scalar Network.dyn_peer[8] 	lookupTimeSig:mean 	0.46656050955414
scalar Network.dyn_peer[8] 	lookupStabilitySig:mean 	0.47124911526776
scalar Network.dyn_peer[8] 	lookupHopsSig:mean 	4.2324840764331
scalar Network.dyn_peer[9] 	lookupTimeSig:mean 	0.49539007092199
scalar Network.dyn_peer[9] 	lookupStabilitySig:mean 	0.43631796686785
scalar Network.dyn_peer[9] 	lookupHopsSig:mean 	4.5106382978723
scalar Network.dyn_peer[10] 	lookupTimeSig:mean 	0.44158075601375
scalar Network.dyn_peer[10] 	lookupStabilitySig:mean 	0.50735013363595
scalar Network.dyn_peer[10] 	lookupHopsSig:mean 	3.9415807560137
scalar Network.dyn_peer[11] 	lookupTimeSig:mean 	0.42946428571429
scalar Network.dyn_peer[11] 	lookupStabilitySig:mean 	0.52715773796219
scalar Network.dyn_peer[11] 	lookupHopsSig:mean 	3.7886904761905
scalar Network.dyn_peer[12] 	lookupTimeSig:mean 	0.45743243243243
scalar Network.dyn_peer[12] 	lookupStabilitySig:mean 	0.48226351351351
scalar Network.dyn_peer[12] 	lookupHopsSig:mean 	4.1418918918919
scalar Network.dyn_peer[13] 	lookupTimeSig:mean 	0.48489208633094
scalar Network.dyn_peer[13] 	lookupStabilitySig:mean 	0.4464928057554
scalar Network.dyn_peer[13] 	lookupHopsSig:mean 	4.4280575539568
scalar Network.dyn_peer[14] 	lookupTimeSig:mean 	0.45294117647059
scalar Network.dyn_peer[14] 	lookupStabilitySig:mean 	0.49514342773876
scalar Network.dyn_peer[14] 	lookupHopsSig:mean 	4.0392156862745
scalar Network.dyn_peer[15] 	lookupTimeSig:mean 	0.46138613861386
scalar Network.dyn_peer[15] 	lookupStabilitySig:mean 	0.48487348731595
scalar Network.dyn_peer[15] 	lookupHopsSig:mean 	4.1221122112211
scalar Network.dyn_peer[16] 	lookupTimeSig:mean 	0.43595166163142
scalar Network.dyn_peer[16] 	lookupStabilitySig:mean 	0.51581906678093
scalar Network.dyn_peer[16] 	lookupHopsSig:mean 	3.8761329305136
scalar Network.dyn_peer[17] 	lookupTimeSig:mean 	0.45902777777778
scalar Network.dyn_peer[17] 	lookupStabilitySig:mean 	0.48582175922477
scalar Network.dyn_peer[17] 	lookupHopsSig:mean 	4.1145833333333
scalar Network.dyn_peer[18] 	lookupTimeSig:mean 	0.45567765567766
scalar Network.dyn_peer[18] 	lookupStabilitySig:mean 	0.49068986561709
scalar Network.dyn_peer[18] 	lookupHopsSig:mean 	4.0769230769231
scalar Network.dyn_peer[19] 	lookupTimeSig:mean 	0.46006493506494
scalar Network.dyn_peer[19] 	lookupStabilitySig:mean 	0.48453282816457
scalar Network.dyn_peer[19] 	lookupHopsSig:mean 	4.1266233766234
scalar Network.dyn_peer[20] 	lookupTimeSig:mean 	0.49557195571956
scalar Network.dyn_peer[20] 	lookupStabilitySig:mean 	0.43706437060094
scalar Network.dyn_peer[20] 	lookupHopsSig:mean 	4.5055350553506
scalar Network.dyn_peer[21] 	lookupTimeSig:mean 	0.45737704918033
scalar Network.dyn_peer[21] 	lookupStabilitySig:mean 	0.49280510017129
scalar Network.dyn_peer[21] 	lookupHopsSig:mean 	4.0590163934426
scalar Network.dyn_peer[22] 	lookupTimeSig:mean 	0.48280701754386
scalar Network.dyn_peer[22] 	lookupStabilitySig:mean 	0.46135477570065
scalar Network.dyn_peer[22] 	lookupHopsSig:mean 	4.3122807017544
scalar Network.dyn_peer[23] 	lookupTimeSig:mean 	0.44560810810811
scalar Network.dyn_peer[23] 	lookupStabilitySig:mean 	0.51036974465525
scalar Network.dyn_peer[23] 	lookupHopsSig:mean 	3.9189189189189
scalar Network.dyn_peer[24] 	lookupTimeSig:mean 	0.43290322580645
scalar Network.dyn_peer[24] 	lookupStabilitySig:mean 	0.51684587809347
scalar Network.dyn_peer[24] 	lookupHopsSig:mean 	3.8677419354839
scalar Network.dyn_peer[25] 	lookupTimeSig:mean 	0.44083601286174
scalar Network.dyn_peer[25] 	lookupStabilitySig:mean 	0.50719006771635
scalar Network.dyn_peer[25] 	lookupHopsSig:mean 	3.951768488746
scalar Network.dyn_peer[26] 	lookupTimeSig:mean 	0.43986710963455
scalar Network.dyn_peer[26] 	lookupStabilitySig:mean 	0.51665743799305
scalar Network.dyn_peer[26] 	lookupHopsSig:mean 	3.8704318936877
scalar Network.dyn_peer[27] 	lookupTimeSig:mean 	0.44982578397213
scalar Network.dyn_peer[27] 	lookupStabilitySig:mean 	0.49303135888502
scalar Network.dyn_peer[27] 	lookupHopsSig:mean 	4.0557491289199
scalar Network.dyn_peer[28] 	lookupTimeSig:mean 	0.4695652173913
scalar Network.dyn_peer[28] 	lookupStabilitySig:mean 	0.46839774556566
scalar Network.dyn_peer[28] 	lookupHopsSig:mean 	4.2536231884058
scalar Network.dyn_peer[29] 	lookupTimeSig:mean 	0.45993265993266
scalar Network.dyn_peer[29] 	lookupStabilitySig:mean 	0.48573699942241
scalar Network.dyn_peer[29] 	lookupHopsSig:mean 	4.1212121212121
scalar Network.dyn_peer[30] 	lookupTimeSig:mean 	0.45033333333333
scalar Network.dyn_peer[30] 	lookupStabilitySig:mean 	0.49166666656733
scalar Network.dyn_peer[30] 	lookupHopsSig:mean 	4.07
scalar Network.dyn_peer[31] 	lookupTimeSig:mean 	0.46151202749141
scalar Network.dyn_peer[31] 	lookupStabilitySig:mean 	0.48229285979906
scalar Network.dyn_peer[31] 	lookupHopsSig:mean 	4.1443298969072
