version 2
run Stability-norelink-51-20130525-23:17:23-22103
attr configname Stability-norelink
attr datetime 20130525-23:17:23
attr experiment Stability
attr inifile omnetpp.ini
attr iterationvars $0=1e1
attr iterationvars2 "$0=1e1, $repetition=1"
attr measurement $0=1e1
attr network Network
attr processid 22103
attr repetition 1
attr replication #1
attr resultdir results
attr runnumber 51
attr seedset 51

scalar Network.dyn_peer[0] 	lookupTimeSig:mean 	0.4872131147541
scalar Network.dyn_peer[0] 	lookupStabilitySig:mean 	0.4483606557377
scalar Network.dyn_peer[0] 	lookupHopsSig:mean 	4.4131147540984
scalar Network.dyn_peer[1] 	lookupTimeSig:mean 	0.45222929936306
scalar Network.dyn_peer[1] 	lookupStabilitySig:mean 	0.50079617834395
scalar Network.dyn_peer[1] 	lookupHopsSig:mean 	3.9936305732484
scalar Network.dyn_peer[2] 	lookupTimeSig:mean 	0.47643097643098
scalar Network.dyn_peer[2] 	lookupStabilitySig:mean 	0.46170033670034
scalar Network.dyn_peer[2] 	lookupHopsSig:mean 	4.3063973063973
scalar Network.dyn_peer[3] 	lookupTimeSig:mean 	0.45494880546075
scalar Network.dyn_peer[3] 	lookupStabilitySig:mean 	0.4957337883959
scalar Network.dyn_peer[3] 	lookupHopsSig:mean 	4.0341296928328
scalar Network.dyn_peer[4] 	lookupTimeSig:mean 	0.44472049689441
scalar Network.dyn_peer[4] 	lookupStabilitySig:mean 	0.50892857142857
scalar Network.dyn_peer[4] 	lookupHopsSig:mean 	3.9285714285714
scalar Network.dyn_peer[5] 	lookupTimeSig:mean 	0.49676258992806
scalar Network.dyn_peer[5] 	lookupStabilitySig:mean 	0.44109712230216
scalar Network.dyn_peer[5] 	lookupHopsSig:mean 	4.4712230215827
scalar Network.dyn_peer[6] 	lookupTimeSig:mean 	0.50434782608696
scalar Network.dyn_peer[6] 	lookupStabilitySig:mean 	0.42975040255249
scalar Network.dyn_peer[6] 	lookupHopsSig:mean 	4.5652173913043
scalar Network.dyn_peer[7] 	lookupTimeSig:mean 	0.4219512195122
scalar Network.dyn_peer[7] 	lookupStabilitySig:mean 	0.53696646339192
scalar Network.dyn_peer[7] 	lookupHopsSig:mean 	3.7073170731707
scalar Network.dyn_peer[8] 	lookupTimeSig:mean 	0.50594795539033
scalar Network.dyn_peer[8] 	lookupStabilitySig:mean 	0.43034902918516
scalar Network.dyn_peer[8] 	lookupHopsSig:mean 	4.5613382899628
scalar Network.dyn_peer[9] 	lookupTimeSig:mean 	0.45207667731629
scalar Network.dyn_peer[9] 	lookupStabilitySig:mean 	0.49201277955272
scalar Network.dyn_peer[9] 	lookupHopsSig:mean 	4.0638977635783
scalar Network.dyn_peer[10] 	lookupTimeSig:mean 	0.47120743034056
scalar Network.dyn_peer[10] 	lookupStabilitySig:mean 	0.46981424148607
scalar Network.dyn_peer[10] 	lookupHopsSig:mean 	4.2414860681115
scalar Network.dyn_peer[11] 	lookupTimeSig:mean 	0.49419795221843
scalar Network.dyn_peer[11] 	lookupStabilitySig:mean 	0.43704967765271
scalar Network.dyn_peer[11] 	lookupHopsSig:mean 	4.5051194539249
scalar Network.dyn_peer[12] 	lookupTimeSig:mean 	0.48692810457516
scalar Network.dyn_peer[12] 	lookupStabilitySig:mean 	0.44321895424837
scalar Network.dyn_peer[12] 	lookupHopsSig:mean 	4.4542483660131
scalar Network.dyn_peer[13] 	lookupTimeSig:mean 	0.44769230769231
scalar Network.dyn_peer[13] 	lookupStabilitySig:mean 	0.50576923076923
scalar Network.dyn_peer[13] 	lookupHopsSig:mean 	3.9538461538462
scalar Network.dyn_peer[14] 	lookupTimeSig:mean 	0.47016949152542
scalar Network.dyn_peer[14] 	lookupStabilitySig:mean 	0.48135593220339
scalar Network.dyn_peer[14] 	lookupHopsSig:mean 	4.1491525423729
scalar Network.dyn_peer[15] 	lookupTimeSig:mean 	0.44866666666667
scalar Network.dyn_peer[15] 	lookupStabilitySig:mean 	0.50152777773639
scalar Network.dyn_peer[15] 	lookupHopsSig:mean 	3.99
scalar Network.dyn_peer[16] 	lookupTimeSig:mean 	0.46211604095563
scalar Network.dyn_peer[16] 	lookupStabilitySig:mean 	0.48260333711987
scalar Network.dyn_peer[16] 	lookupHopsSig:mean 	4.1399317406143
scalar Network.dyn_peer[17] 	lookupTimeSig:mean 	0.46818181818182
scalar Network.dyn_peer[17] 	lookupStabilitySig:mean 	0.48133116883117
scalar Network.dyn_peer[17] 	lookupHopsSig:mean 	4.1493506493506
scalar Network.dyn_peer[18] 	lookupTimeSig:mean 	0.44394904458599
scalar Network.dyn_peer[18] 	lookupStabilitySig:mean 	0.50561748053523
scalar Network.dyn_peer[18] 	lookupHopsSig:mean 	3.9554140127389
scalar Network.dyn_peer[19] 	lookupTimeSig:mean 	0.47875816993464
scalar Network.dyn_peer[19] 	lookupStabilitySig:mean 	0.46673021051619
scalar Network.dyn_peer[19] 	lookupHopsSig:mean 	4.2679738562092
scalar Network.dyn_peer[20] 	lookupTimeSig:mean 	0.44700315457413
scalar Network.dyn_peer[20] 	lookupStabilitySig:mean 	0.50709779179811
scalar Network.dyn_peer[20] 	lookupHopsSig:mean 	3.9432176656151
scalar Network.dyn_peer[21] 	lookupTimeSig:mean 	0.49391634980989
scalar Network.dyn_peer[21] 	lookupStabilitySig:mean 	0.43805449929074
scalar Network.dyn_peer[21] 	lookupHopsSig:mean 	4.4980988593156
scalar Network.dyn_peer[22] 	lookupTimeSig:mean 	0.46050156739812
scalar Network.dyn_peer[22] 	lookupStabilitySig:mean 	0.48728665966412
scalar Network.dyn_peer[22] 	lookupHopsSig:mean 	4.1034482758621
scalar Network.dyn_peer[23] 	lookupTimeSig:mean 	0.46566666666667
scalar Network.dyn_peer[23] 	lookupStabilitySig:mean 	0.47782407402992
scalar Network.dyn_peer[23] 	lookupHopsSig:mean 	4.18
scalar Network.dyn_peer[24] 	lookupTimeSig:mean 	0.50170648464164
scalar Network.dyn_peer[24] 	lookupStabilitySig:mean 	0.42704778156997
scalar Network.dyn_peer[24] 	lookupHopsSig:mean 	4.5836177474403
scalar Network.dyn_peer[25] 	lookupTimeSig:mean 	0.45513698630137
scalar Network.dyn_peer[25] 	lookupStabilitySig:mean 	0.49162861487943
scalar Network.dyn_peer[25] 	lookupHopsSig:mean 	4.0684931506849
scalar Network.dyn_peer[26] 	lookupTimeSig:mean 	0.4846875
scalar Network.dyn_peer[26] 	lookupStabilitySig:mean 	0.44782986110076
scalar Network.dyn_peer[26] 	lookupHopsSig:mean 	4.41875
scalar Network.dyn_peer[27] 	lookupTimeSig:mean 	0.48338870431894
scalar Network.dyn_peer[27] 	lookupStabilitySig:mean 	0.45367294183601
scalar Network.dyn_peer[27] 	lookupHopsSig:mean 	4.375415282392
scalar Network.dyn_peer[28] 	lookupTimeSig:mean 	0.47473309608541
scalar Network.dyn_peer[28] 	lookupStabilitySig:mean 	0.47118426254848
scalar Network.dyn_peer[28] 	lookupHopsSig:mean 	4.2313167259786
scalar Network.dyn_peer[29] 	lookupTimeSig:mean 	0.49042553191489
scalar Network.dyn_peer[29] 	lookupStabilitySig:mean 	0.44828605197423
scalar Network.dyn_peer[29] 	lookupHopsSig:mean 	4.4148936170213
scalar Network.dyn_peer[30] 	lookupTimeSig:mean 	0.47675159235669
scalar Network.dyn_peer[30] 	lookupStabilitySig:mean 	0.46165074306024
scalar Network.dyn_peer[30] 	lookupHopsSig:mean 	4.3089171974522
scalar Network.dyn_peer[31] 	lookupTimeSig:mean 	0.50070175438596
scalar Network.dyn_peer[31] 	lookupStabilitySig:mean 	0.43425925907336
scalar Network.dyn_peer[31] 	lookupHopsSig:mean 	4.5298245614035
