version 2
run Stability-norelink-81-20130525-23:19:24-22103
attr configname Stability-norelink
attr datetime 20130525-23:19:24
attr experiment Stability
attr inifile omnetpp.ini
attr iterationvars $0=1e-2
attr iterationvars2 "$0=1e-2, $repetition=1"
attr measurement $0=1e-2
attr network Network
attr processid 22103
attr repetition 1
attr replication #1
attr resultdir results
attr runnumber 81
attr seedset 81

scalar Network.dyn_peer[0] 	lookupTimeSig:mean 	0.48445945945946
scalar Network.dyn_peer[0] 	lookupStabilitySig:mean 	0.4579767265634
scalar Network.dyn_peer[0] 	lookupHopsSig:mean 	4.3412162162162
scalar Network.dyn_peer[1] 	lookupTimeSig:mean 	0.45718954248366
scalar Network.dyn_peer[1] 	lookupStabilitySig:mean 	0.49237472758768
scalar Network.dyn_peer[1] 	lookupHopsSig:mean 	4.0653594771242
scalar Network.dyn_peer[2] 	lookupTimeSig:mean 	0.44452054794521
scalar Network.dyn_peer[2] 	lookupStabilitySig:mean 	0.50513698630137
scalar Network.dyn_peer[2] 	lookupHopsSig:mean 	3.958904109589
scalar Network.dyn_peer[3] 	lookupTimeSig:mean 	0.46145833333333
scalar Network.dyn_peer[3] 	lookupStabilitySig:mean 	0.47916666666667
scalar Network.dyn_peer[3] 	lookupHopsSig:mean 	4.1666666666667
scalar Network.dyn_peer[4] 	lookupTimeSig:mean 	0.46533333333333
scalar Network.dyn_peer[4] 	lookupStabilitySig:mean 	0.47495370368163
scalar Network.dyn_peer[4] 	lookupHopsSig:mean 	4.2033333333333
scalar Network.dyn_peer[5] 	lookupTimeSig:mean 	0.46351791530945
scalar Network.dyn_peer[5] 	lookupStabilitySig:mean 	0.482401375225
scalar Network.dyn_peer[5] 	lookupHopsSig:mean 	4.1465798045603
scalar Network.dyn_peer[6] 	lookupTimeSig:mean 	0.50138408304498
scalar Network.dyn_peer[6] 	lookupStabilitySig:mean 	0.43209342560554
scalar Network.dyn_peer[6] 	lookupHopsSig:mean 	4.5432525951557
scalar Network.dyn_peer[7] 	lookupTimeSig:mean 	0.48956228956229
scalar Network.dyn_peer[7] 	lookupStabilitySig:mean 	0.44898054615817
scalar Network.dyn_peer[7] 	lookupHopsSig:mean 	4.4107744107744
scalar Network.dyn_peer[8] 	lookupTimeSig:mean 	0.47349823321555
scalar Network.dyn_peer[8] 	lookupStabilitySig:mean 	0.4606890459364
scalar Network.dyn_peer[8] 	lookupHopsSig:mean 	4.3144876325088
scalar Network.dyn_peer[9] 	lookupTimeSig:mean 	0.46913183279743
scalar Network.dyn_peer[9] 	lookupStabilitySig:mean 	0.47414255084715
scalar Network.dyn_peer[9] 	lookupHopsSig:mean 	4.2122186495177
scalar Network.dyn_peer[10] 	lookupTimeSig:mean 	0.43803278688525
scalar Network.dyn_peer[10] 	lookupStabilitySig:mean 	0.51165755918769
scalar Network.dyn_peer[10] 	lookupHopsSig:mean 	3.9081967213115
scalar Network.dyn_peer[11] 	lookupTimeSig:mean 	0.45064102564103
scalar Network.dyn_peer[11] 	lookupStabilitySig:mean 	0.4984419515643
scalar Network.dyn_peer[11] 	lookupHopsSig:mean 	4.0128205128205
scalar Network.dyn_peer[12] 	lookupTimeSig:mean 	0.47433333333333
scalar Network.dyn_peer[12] 	lookupStabilitySig:mean 	0.47333333333333
scalar Network.dyn_peer[12] 	lookupHopsSig:mean 	4.2133333333333
scalar Network.dyn_peer[13] 	lookupTimeSig:mean 	0.44018691588785
scalar Network.dyn_peer[13] 	lookupStabilitySig:mean 	0.51246105919003
scalar Network.dyn_peer[13] 	lookupHopsSig:mean 	3.9003115264798
scalar Network.dyn_peer[14] 	lookupTimeSig:mean 	0.43607594936709
scalar Network.dyn_peer[14] 	lookupStabilitySig:mean 	0.51661392395632
scalar Network.dyn_peer[14] 	lookupHopsSig:mean 	3.870253164557
scalar Network.dyn_peer[15] 	lookupTimeSig:mean 	0.46065573770492
scalar Network.dyn_peer[15] 	lookupStabilitySig:mean 	0.4832422585761
scalar Network.dyn_peer[15] 	lookupHopsSig:mean 	4.1377049180328
scalar Network.dyn_peer[16] 	lookupTimeSig:mean 	0.43471810089021
scalar Network.dyn_peer[16] 	lookupStabilitySig:mean 	0.52340916577362
scalar Network.dyn_peer[16] 	lookupHopsSig:mean 	3.8189910979228
scalar Network.dyn_peer[17] 	lookupTimeSig:mean 	0.4444099378882
scalar Network.dyn_peer[17] 	lookupStabilitySig:mean 	0.50953243615002
scalar Network.dyn_peer[17] 	lookupHopsSig:mean 	3.9285714285714
scalar Network.dyn_peer[18] 	lookupTimeSig:mean 	0.46945337620579
scalar Network.dyn_peer[18] 	lookupStabilitySig:mean 	0.47249017502526
scalar Network.dyn_peer[18] 	lookupHopsSig:mean 	4.2218649517685
scalar Network.dyn_peer[19] 	lookupTimeSig:mean 	0.45276872964169
scalar Network.dyn_peer[19] 	lookupStabilitySig:mean 	0.50420738314961
scalar Network.dyn_peer[19] 	lookupHopsSig:mean 	3.9771986970684
scalar Network.dyn_peer[20] 	lookupTimeSig:mean 	0.45686900958466
scalar Network.dyn_peer[20] 	lookupStabilitySig:mean 	0.49090344337419
scalar Network.dyn_peer[20] 	lookupHopsSig:mean 	4.073482428115
scalar Network.dyn_peer[21] 	lookupTimeSig:mean 	0.47040816326531
scalar Network.dyn_peer[21] 	lookupStabilitySig:mean 	0.4767101283635
scalar Network.dyn_peer[21] 	lookupHopsSig:mean 	4.1904761904762
scalar Network.dyn_peer[22] 	lookupTimeSig:mean 	0.44244372990354
scalar Network.dyn_peer[22] 	lookupStabilitySig:mean 	0.50803858516109
scalar Network.dyn_peer[22] 	lookupHopsSig:mean 	3.9389067524116
scalar Network.dyn_peer[23] 	lookupTimeSig:mean 	0.48191126279863
scalar Network.dyn_peer[23] 	lookupStabilitySig:mean 	0.4481418277725
scalar Network.dyn_peer[23] 	lookupHopsSig:mean 	4.4232081911263
scalar Network.dyn_peer[24] 	lookupTimeSig:mean 	0.4294670846395
scalar Network.dyn_peer[24] 	lookupStabilitySig:mean 	0.52969348654852
scalar Network.dyn_peer[24] 	lookupHopsSig:mean 	3.7648902821317
scalar Network.dyn_peer[25] 	lookupTimeSig:mean 	0.45371621621622
scalar Network.dyn_peer[25] 	lookupStabilitySig:mean 	0.48841028519579
scalar Network.dyn_peer[25] 	lookupHopsSig:mean 	4.0945945945946
scalar Network.dyn_peer[26] 	lookupTimeSig:mean 	0.4641935483871
scalar Network.dyn_peer[26] 	lookupStabilitySig:mean 	0.48525985662014
scalar Network.dyn_peer[26] 	lookupHopsSig:mean 	4.1193548387097
scalar Network.dyn_peer[27] 	lookupTimeSig:mean 	0.46363636363636
scalar Network.dyn_peer[27] 	lookupStabilitySig:mean 	0.47121212119406
scalar Network.dyn_peer[27] 	lookupHopsSig:mean 	4.2327272727273
scalar Network.dyn_peer[28] 	lookupTimeSig:mean 	0.48525179856115
scalar Network.dyn_peer[28] 	lookupStabilitySig:mean 	0.45188848920863
scalar Network.dyn_peer[28] 	lookupHopsSig:mean 	4.3848920863309
scalar Network.dyn_peer[29] 	lookupTimeSig:mean 	0.48286713286713
scalar Network.dyn_peer[29] 	lookupStabilitySig:mean 	0.4483780107767
scalar Network.dyn_peer[29] 	lookupHopsSig:mean 	4.4160839160839
scalar Network.dyn_peer[30] 	lookupTimeSig:mean 	0.43345195729537
scalar Network.dyn_peer[30] 	lookupStabilitySig:mean 	0.5173981810963
scalar Network.dyn_peer[30] 	lookupHopsSig:mean 	3.8612099644128
scalar Network.dyn_peer[31] 	lookupTimeSig:mean 	0.48661971830986
scalar Network.dyn_peer[31] 	lookupStabilitySig:mean 	0.44390649442941
scalar Network.dyn_peer[31] 	lookupHopsSig:mean 	4.4507042253521
