version 2
run Stability-norelink-140-20130525-23:23:23-22103
attr configname Stability-norelink
attr datetime 20130525-23:23:23
attr experiment Stability
attr inifile omnetpp.ini
attr iterationvars $0=1e-8
attr iterationvars2 "$0=1e-8, $repetition=0"
attr measurement $0=1e-8
attr network Network
attr processid 22103
attr repetition 0
attr replication #0
attr resultdir results
attr runnumber 140
attr seedset 140

scalar Network.dyn_peer[0] 	lookupTimeSig:mean 	0.45897435897436
scalar Network.dyn_peer[0] 	lookupStabilitySig:mean 	0.49772970082286
scalar Network.dyn_peer[0] 	lookupHopsSig:mean 	4.0192307692308
scalar Network.dyn_peer[1] 	lookupTimeSig:mean 	0.46513157894737
scalar Network.dyn_peer[1] 	lookupStabilitySig:mean 	0.47263340642186
scalar Network.dyn_peer[1] 	lookupHopsSig:mean 	4.2203947368421
scalar Network.dyn_peer[2] 	lookupTimeSig:mean 	0.47980769230769
scalar Network.dyn_peer[2] 	lookupStabilitySig:mean 	0.45570690872578
scalar Network.dyn_peer[2] 	lookupHopsSig:mean 	4.3589743589744
scalar Network.dyn_peer[3] 	lookupTimeSig:mean 	0.47278911564626
scalar Network.dyn_peer[3] 	lookupStabilitySig:mean 	0.46811224489796
scalar Network.dyn_peer[3] 	lookupHopsSig:mean 	4.2551020408163
scalar Network.dyn_peer[4] 	lookupTimeSig:mean 	0.44731543624161
scalar Network.dyn_peer[4] 	lookupStabilitySig:mean 	0.49505965696685
scalar Network.dyn_peer[4] 	lookupHopsSig:mean 	4.0402684563758
scalar Network.dyn_peer[5] 	lookupTimeSig:mean 	0.48586206896552
scalar Network.dyn_peer[5] 	lookupStabilitySig:mean 	0.45028735625333
scalar Network.dyn_peer[5] 	lookupHopsSig:mean 	4.4
scalar Network.dyn_peer[6] 	lookupTimeSig:mean 	0.43557692307692
scalar Network.dyn_peer[6] 	lookupStabilitySig:mean 	0.52034366090233
scalar Network.dyn_peer[6] 	lookupHopsSig:mean 	3.8397435897436
scalar Network.dyn_peer[7] 	lookupTimeSig:mean 	0.48877887788779
scalar Network.dyn_peer[7] 	lookupStabilitySig:mean 	0.44838650519698
scalar Network.dyn_peer[7] 	lookupHopsSig:mean 	4.4158415841584
scalar Network.dyn_peer[8] 	lookupTimeSig:mean 	0.45434782608696
scalar Network.dyn_peer[8] 	lookupStabilitySig:mean 	0.49469461694637
scalar Network.dyn_peer[8] 	lookupHopsSig:mean 	4.0434782608696
scalar Network.dyn_peer[9] 	lookupTimeSig:mean 	0.48223684210526
scalar Network.dyn_peer[9] 	lookupStabilitySig:mean 	0.4545413011587
scalar Network.dyn_peer[9] 	lookupHopsSig:mean 	4.3651315789474
scalar Network.dyn_peer[10] 	lookupTimeSig:mean 	0.459
scalar Network.dyn_peer[10] 	lookupStabilitySig:mean 	0.48305555559695
scalar Network.dyn_peer[10] 	lookupHopsSig:mean 	4.14
scalar Network.dyn_peer[11] 	lookupTimeSig:mean 	0.48
scalar Network.dyn_peer[11] 	lookupStabilitySig:mean 	0.45677387913068
scalar Network.dyn_peer[11] 	lookupHopsSig:mean 	4.3473684210526
scalar Network.dyn_peer[12] 	lookupTimeSig:mean 	0.50278745644599
scalar Network.dyn_peer[12] 	lookupStabilitySig:mean 	0.42997483545687
scalar Network.dyn_peer[12] 	lookupHopsSig:mean 	4.5644599303136
scalar Network.dyn_peer[13] 	lookupTimeSig:mean 	0.44968152866242
scalar Network.dyn_peer[13] 	lookupStabilitySig:mean 	0.50442321294812
scalar Network.dyn_peer[13] 	lookupHopsSig:mean 	3.968152866242
scalar Network.dyn_peer[14] 	lookupTimeSig:mean 	0.4503164556962
scalar Network.dyn_peer[14] 	lookupStabilitySig:mean 	0.50325246131684
scalar Network.dyn_peer[14] 	lookupHopsSig:mean 	3.9746835443038
scalar Network.dyn_peer[15] 	lookupTimeSig:mean 	0.4742474916388
scalar Network.dyn_peer[15] 	lookupStabilitySig:mean 	0.47120029715989
scalar Network.dyn_peer[15] 	lookupHopsSig:mean 	4.2341137123746
scalar Network.dyn_peer[16] 	lookupTimeSig:mean 	0.47517482517483
scalar Network.dyn_peer[16] 	lookupStabilitySig:mean 	0.46372377622378
scalar Network.dyn_peer[16] 	lookupHopsSig:mean 	4.2902097902098
scalar Network.dyn_peer[17] 	lookupTimeSig:mean 	0.4751677852349
scalar Network.dyn_peer[17] 	lookupStabilitySig:mean 	0.47320096942302
scalar Network.dyn_peer[17] 	lookupHopsSig:mean 	4.2147651006711
scalar Network.dyn_peer[18] 	lookupTimeSig:mean 	0.45290102389079
scalar Network.dyn_peer[18] 	lookupStabilitySig:mean 	0.49805650359128
scalar Network.dyn_peer[18] 	lookupHopsSig:mean 	4.0204778156997
scalar Network.dyn_peer[19] 	lookupTimeSig:mean 	0.47985865724382
scalar Network.dyn_peer[19] 	lookupStabilitySig:mean 	0.45367098547018
scalar Network.dyn_peer[19] 	lookupHopsSig:mean 	4.3710247349823
scalar Network.dyn_peer[20] 	lookupTimeSig:mean 	0.43788819875776
scalar Network.dyn_peer[20] 	lookupStabilitySig:mean 	0.51871980675814
scalar Network.dyn_peer[20] 	lookupHopsSig:mean 	3.8509316770186
scalar Network.dyn_peer[21] 	lookupTimeSig:mean 	0.47173144876325
scalar Network.dyn_peer[21] 	lookupStabilitySig:mean 	0.4708480565371
scalar Network.dyn_peer[21] 	lookupHopsSig:mean 	4.2332155477032
scalar Network.dyn_peer[22] 	lookupTimeSig:mean 	0.46053511705686
scalar Network.dyn_peer[22] 	lookupStabilitySig:mean 	0.48820141207016
scalar Network.dyn_peer[22] 	lookupHopsSig:mean 	4.0969899665552
scalar Network.dyn_peer[23] 	lookupTimeSig:mean 	0.44846416382253
scalar Network.dyn_peer[23] 	lookupStabilitySig:mean 	0.5
scalar Network.dyn_peer[23] 	lookupHopsSig:mean 	4
scalar Network.dyn_peer[24] 	lookupTimeSig:mean 	0.4711743772242
scalar Network.dyn_peer[24] 	lookupStabilitySig:mean 	0.47647291419239
scalar Network.dyn_peer[24] 	lookupHopsSig:mean 	4.1886120996441
scalar Network.dyn_peer[25] 	lookupTimeSig:mean 	0.47821782178218
scalar Network.dyn_peer[25] 	lookupStabilitySig:mean 	0.46740924092409
scalar Network.dyn_peer[25] 	lookupHopsSig:mean 	4.2607260726073
scalar Network.dyn_peer[26] 	lookupTimeSig:mean 	0.47043189368771
scalar Network.dyn_peer[26] 	lookupStabilitySig:mean 	0.47757475078106
scalar Network.dyn_peer[26] 	lookupHopsSig:mean 	4.1860465116279
scalar Network.dyn_peer[27] 	lookupTimeSig:mean 	0.45938566552901
scalar Network.dyn_peer[27] 	lookupStabilitySig:mean 	0.48464163822526
scalar Network.dyn_peer[27] 	lookupHopsSig:mean 	4.122866894198
scalar Network.dyn_peer[28] 	lookupTimeSig:mean 	0.46996466431095
scalar Network.dyn_peer[28] 	lookupStabilitySig:mean 	0.48012367491166
scalar Network.dyn_peer[28] 	lookupHopsSig:mean 	4.1590106007067
scalar Network.dyn_peer[29] 	lookupTimeSig:mean 	0.44077380952381
scalar Network.dyn_peer[29] 	lookupStabilitySig:mean 	0.51182208988549
scalar Network.dyn_peer[29] 	lookupHopsSig:mean 	3.9077380952381
scalar Network.dyn_peer[30] 	lookupTimeSig:mean 	0.47108843537415
scalar Network.dyn_peer[30] 	lookupStabilitySig:mean 	0.46943499621789
scalar Network.dyn_peer[30] 	lookupHopsSig:mean 	4.2448979591837
scalar Network.dyn_peer[31] 	lookupTimeSig:mean 	0.47576791808874
scalar Network.dyn_peer[31] 	lookupStabilitySig:mean 	0.4717956009375
scalar Network.dyn_peer[31] 	lookupHopsSig:mean 	4.2286689419795
