version 2
run Stability-norelink-57-20130525-23:17:47-22103
attr configname Stability-norelink
attr datetime 20130525-23:17:47
attr experiment Stability
attr inifile omnetpp.ini
attr iterationvars $0=1e1
attr iterationvars2 "$0=1e1, $repetition=7"
attr measurement $0=1e1
attr network Network
attr processid 22103
attr repetition 7
attr replication #7
attr resultdir results
attr runnumber 57
attr seedset 57

scalar Network.dyn_peer[0] 	lookupTimeSig:mean 	0.44406779661017
scalar Network.dyn_peer[0] 	lookupStabilitySig:mean 	0.50084745762712
scalar Network.dyn_peer[0] 	lookupHopsSig:mean 	3.9932203389831
scalar Network.dyn_peer[1] 	lookupTimeSig:mean 	0.47581227436823
scalar Network.dyn_peer[1] 	lookupStabilitySig:mean 	0.46109105490605
scalar Network.dyn_peer[1] 	lookupHopsSig:mean 	4.3176895306859
scalar Network.dyn_peer[2] 	lookupTimeSig:mean 	0.46040955631399
scalar Network.dyn_peer[2] 	lookupStabilitySig:mean 	0.48781759574145
scalar Network.dyn_peer[2] 	lookupHopsSig:mean 	4.1023890784983
scalar Network.dyn_peer[3] 	lookupTimeSig:mean 	0.47955974842767
scalar Network.dyn_peer[3] 	lookupStabilitySig:mean 	0.45361635220126
scalar Network.dyn_peer[3] 	lookupHopsSig:mean 	4.3710691823899
scalar Network.dyn_peer[4] 	lookupTimeSig:mean 	0.42689873417722
scalar Network.dyn_peer[4] 	lookupStabilitySig:mean 	0.52412974683544
scalar Network.dyn_peer[4] 	lookupHopsSig:mean 	3.8069620253165
scalar Network.dyn_peer[5] 	lookupTimeSig:mean 	0.48947368421053
scalar Network.dyn_peer[5] 	lookupStabilitySig:mean 	0.44059454171281
scalar Network.dyn_peer[5] 	lookupHopsSig:mean 	4.480701754386
scalar Network.dyn_peer[6] 	lookupTimeSig:mean 	0.45566343042071
scalar Network.dyn_peer[6] 	lookupStabilitySig:mean 	0.49613448398785
scalar Network.dyn_peer[6] 	lookupHopsSig:mean 	4.0323624595469
scalar Network.dyn_peer[7] 	lookupTimeSig:mean 	0.45454545454545
scalar Network.dyn_peer[7] 	lookupStabilitySig:mean 	0.47902097902098
scalar Network.dyn_peer[7] 	lookupHopsSig:mean 	4.1678321678322
scalar Network.dyn_peer[8] 	lookupTimeSig:mean 	0.42713414634146
scalar Network.dyn_peer[8] 	lookupStabilitySig:mean 	0.52981029809793
scalar Network.dyn_peer[8] 	lookupHopsSig:mean 	3.7621951219512
scalar Network.dyn_peer[9] 	lookupTimeSig:mean 	0.48506944444444
scalar Network.dyn_peer[9] 	lookupStabilitySig:mean 	0.45572916666667
scalar Network.dyn_peer[9] 	lookupHopsSig:mean 	4.3541666666667
scalar Network.dyn_peer[10] 	lookupTimeSig:mean 	0.45529010238908
scalar Network.dyn_peer[10] 	lookupStabilitySig:mean 	0.48867083816398
scalar Network.dyn_peer[10] 	lookupHopsSig:mean 	4.0955631399317
scalar Network.dyn_peer[11] 	lookupTimeSig:mean 	0.47815699658703
scalar Network.dyn_peer[11] 	lookupStabilitySig:mean 	0.45847554052242
scalar Network.dyn_peer[11] 	lookupHopsSig:mean 	4.3378839590444
scalar Network.dyn_peer[12] 	lookupTimeSig:mean 	0.47112676056338
scalar Network.dyn_peer[12] 	lookupStabilitySig:mean 	0.46963028169014
scalar Network.dyn_peer[12] 	lookupHopsSig:mean 	4.2429577464789
scalar Network.dyn_peer[13] 	lookupTimeSig:mean 	0.45723684210526
scalar Network.dyn_peer[13] 	lookupStabilitySig:mean 	0.49273574558136
scalar Network.dyn_peer[13] 	lookupHopsSig:mean 	4.0592105263158
scalar Network.dyn_peer[14] 	lookupTimeSig:mean 	0.46266666666667
scalar Network.dyn_peer[14] 	lookupStabilitySig:mean 	0.4675
scalar Network.dyn_peer[14] 	lookupHopsSig:mean 	4.26
scalar Network.dyn_peer[15] 	lookupTimeSig:mean 	0.43256578947368
scalar Network.dyn_peer[15] 	lookupStabilitySig:mean 	0.52375730989795
scalar Network.dyn_peer[15] 	lookupHopsSig:mean 	3.8125
scalar Network.dyn_peer[16] 	lookupTimeSig:mean 	0.43876221498371
scalar Network.dyn_peer[16] 	lookupStabilitySig:mean 	0.51470322106094
scalar Network.dyn_peer[16] 	lookupHopsSig:mean 	3.885993485342
scalar Network.dyn_peer[17] 	lookupTimeSig:mean 	0.49047619047619
scalar Network.dyn_peer[17] 	lookupStabilitySig:mean 	0.43772893772894
scalar Network.dyn_peer[17] 	lookupHopsSig:mean 	4.4981684981685
scalar Network.dyn_peer[18] 	lookupTimeSig:mean 	0.43684210526316
scalar Network.dyn_peer[18] 	lookupStabilitySig:mean 	0.51238121344757
scalar Network.dyn_peer[18] 	lookupHopsSig:mean 	3.9013157894737
scalar Network.dyn_peer[19] 	lookupTimeSig:mean 	0.45033112582781
scalar Network.dyn_peer[19] 	lookupStabilitySig:mean 	0.49885025753683
scalar Network.dyn_peer[19] 	lookupHopsSig:mean 	4.0099337748344
scalar Network.dyn_peer[20] 	lookupTimeSig:mean 	0.47740863787375
scalar Network.dyn_peer[20] 	lookupStabilitySig:mean 	0.46082502761949
scalar Network.dyn_peer[20] 	lookupHopsSig:mean 	4.3156146179402
scalar Network.dyn_peer[21] 	lookupTimeSig:mean 	0.49206896551724
scalar Network.dyn_peer[21] 	lookupStabilitySig:mean 	0.44439655172414
scalar Network.dyn_peer[21] 	lookupHopsSig:mean 	4.4448275862069
scalar Network.dyn_peer[22] 	lookupTimeSig:mean 	0.49
scalar Network.dyn_peer[22] 	lookupStabilitySig:mean 	0.44672619040523
scalar Network.dyn_peer[22] 	lookupHopsSig:mean 	4.4285714285714
scalar Network.dyn_peer[23] 	lookupTimeSig:mean 	0.43821656050955
scalar Network.dyn_peer[23] 	lookupStabilitySig:mean 	0.51061571116565
scalar Network.dyn_peer[23] 	lookupHopsSig:mean 	3.9171974522293
scalar Network.dyn_peer[24] 	lookupTimeSig:mean 	0.43257328990228
scalar Network.dyn_peer[24] 	lookupStabilitySig:mean 	0.51945349251311
scalar Network.dyn_peer[24] 	lookupHopsSig:mean 	3.8469055374593
scalar Network.dyn_peer[25] 	lookupTimeSig:mean 	0.47992957746479
scalar Network.dyn_peer[25] 	lookupStabilitySig:mean 	0.45818661971831
scalar Network.dyn_peer[25] 	lookupHopsSig:mean 	4.3345070422535
scalar Network.dyn_peer[26] 	lookupTimeSig:mean 	0.44075342465753
scalar Network.dyn_peer[26] 	lookupStabilitySig:mean 	0.51284246572791
scalar Network.dyn_peer[26] 	lookupHopsSig:mean 	3.9006849315068
scalar Network.dyn_peer[27] 	lookupTimeSig:mean 	0.43787375415282
scalar Network.dyn_peer[27] 	lookupStabilitySig:mean 	0.5179955703129
scalar Network.dyn_peer[27] 	lookupHopsSig:mean 	3.8571428571429
scalar Network.dyn_peer[28] 	lookupTimeSig:mean 	0.51310861423221
scalar Network.dyn_peer[28] 	lookupStabilitySig:mean 	0.41333749471756
scalar Network.dyn_peer[28] 	lookupHopsSig:mean 	4.6966292134831
scalar Network.dyn_peer[29] 	lookupTimeSig:mean 	0.44422442244224
scalar Network.dyn_peer[29] 	lookupStabilitySig:mean 	0.50536303630363
scalar Network.dyn_peer[29] 	lookupHopsSig:mean 	3.957095709571
scalar Network.dyn_peer[30] 	lookupTimeSig:mean 	0.48345323741007
scalar Network.dyn_peer[30] 	lookupStabilitySig:mean 	0.45148880894986
scalar Network.dyn_peer[30] 	lookupHopsSig:mean 	4.3884892086331
scalar Network.dyn_peer[31] 	lookupTimeSig:mean 	0.4703821656051
scalar Network.dyn_peer[31] 	lookupStabilitySig:mean 	0.4716914366385
scalar Network.dyn_peer[31] 	lookupHopsSig:mean 	4.2292993630573
