version 2
run Stability-norelink-126-20130525-23:22:27-22103
attr configname Stability-norelink
attr datetime 20130525-23:22:27
attr experiment Stability
attr inifile omnetpp.ini
attr iterationvars $0=1e-6
attr iterationvars2 "$0=1e-6, $repetition=6"
attr measurement $0=1e-6
attr network Network
attr processid 22103
attr repetition 6
attr replication #6
attr resultdir results
attr runnumber 126
attr seedset 126

scalar Network.dyn_peer[0] 	lookupTimeSig:mean 	0.44285714285714
scalar Network.dyn_peer[0] 	lookupStabilitySig:mean 	0.51190476177575
scalar Network.dyn_peer[0] 	lookupHopsSig:mean 	3.9090909090909
scalar Network.dyn_peer[1] 	lookupTimeSig:mean 	0.46039603960396
scalar Network.dyn_peer[1] 	lookupStabilitySig:mean 	0.48858635860308
scalar Network.dyn_peer[1] 	lookupHopsSig:mean 	4.0924092409241
scalar Network.dyn_peer[2] 	lookupTimeSig:mean 	0.465
scalar Network.dyn_peer[2] 	lookupStabilitySig:mean 	0.48083333333333
scalar Network.dyn_peer[2] 	lookupHopsSig:mean 	4.1533333333333
scalar Network.dyn_peer[3] 	lookupTimeSig:mean 	0.47797833935018
scalar Network.dyn_peer[3] 	lookupStabilitySig:mean 	0.45938628158845
scalar Network.dyn_peer[3] 	lookupHopsSig:mean 	4.3249097472924
scalar Network.dyn_peer[4] 	lookupTimeSig:mean 	0.43397435897436
scalar Network.dyn_peer[4] 	lookupStabilitySig:mean 	0.51384437318223
scalar Network.dyn_peer[4] 	lookupHopsSig:mean 	3.8910256410256
scalar Network.dyn_peer[5] 	lookupTimeSig:mean 	0.44525316455696
scalar Network.dyn_peer[5] 	lookupStabilitySig:mean 	0.5126582278481
scalar Network.dyn_peer[5] 	lookupHopsSig:mean 	3.8987341772152
scalar Network.dyn_peer[6] 	lookupTimeSig:mean 	0.46245954692557
scalar Network.dyn_peer[6] 	lookupStabilitySig:mean 	0.48557173646384
scalar Network.dyn_peer[6] 	lookupHopsSig:mean 	4.1229773462783
scalar Network.dyn_peer[7] 	lookupTimeSig:mean 	0.45258064516129
scalar Network.dyn_peer[7] 	lookupStabilitySig:mean 	0.50116487453061
scalar Network.dyn_peer[7] 	lookupHopsSig:mean 	3.9935483870968
scalar Network.dyn_peer[8] 	lookupTimeSig:mean 	0.44565916398714
scalar Network.dyn_peer[8] 	lookupStabilitySig:mean 	0.50669882099153
scalar Network.dyn_peer[8] 	lookupHopsSig:mean 	3.9485530546624
scalar Network.dyn_peer[9] 	lookupTimeSig:mean 	0.44077669902913
scalar Network.dyn_peer[9] 	lookupStabilitySig:mean 	0.5134843581124
scalar Network.dyn_peer[9] 	lookupHopsSig:mean 	3.8932038834951
scalar Network.dyn_peer[10] 	lookupTimeSig:mean 	0.46881720430108
scalar Network.dyn_peer[10] 	lookupStabilitySig:mean 	0.46848864986905
scalar Network.dyn_peer[10] 	lookupHopsSig:mean 	4.2544802867384
scalar Network.dyn_peer[11] 	lookupTimeSig:mean 	0.50068493150685
scalar Network.dyn_peer[11] 	lookupStabilitySig:mean 	0.43588280060316
scalar Network.dyn_peer[11] 	lookupHopsSig:mean 	4.513698630137
scalar Network.dyn_peer[12] 	lookupTimeSig:mean 	0.43622754491018
scalar Network.dyn_peer[12] 	lookupStabilitySig:mean 	0.5206254157656
scalar Network.dyn_peer[12] 	lookupHopsSig:mean 	3.8383233532934
scalar Network.dyn_peer[13] 	lookupTimeSig:mean 	0.45873015873016
scalar Network.dyn_peer[13] 	lookupStabilitySig:mean 	0.4876984126038
scalar Network.dyn_peer[13] 	lookupHopsSig:mean 	4.1015873015873
scalar Network.dyn_peer[14] 	lookupTimeSig:mean 	0.48786764705882
scalar Network.dyn_peer[14] 	lookupStabilitySig:mean 	0.45225694424966
scalar Network.dyn_peer[14] 	lookupHopsSig:mean 	4.3897058823529
scalar Network.dyn_peer[15] 	lookupTimeSig:mean 	0.47314487632509
scalar Network.dyn_peer[15] 	lookupStabilitySig:mean 	0.47227129956227
scalar Network.dyn_peer[15] 	lookupHopsSig:mean 	4.2226148409894
scalar Network.dyn_peer[16] 	lookupTimeSig:mean 	0.47162629757785
scalar Network.dyn_peer[16] 	lookupStabilitySig:mean 	0.4727508650519
scalar Network.dyn_peer[16] 	lookupHopsSig:mean 	4.2179930795848
scalar Network.dyn_peer[17] 	lookupTimeSig:mean 	0.45750798722045
scalar Network.dyn_peer[17] 	lookupStabilitySig:mean 	0.49409833138648
scalar Network.dyn_peer[17] 	lookupHopsSig:mean 	4.0511182108626
scalar Network.dyn_peer[18] 	lookupTimeSig:mean 	0.45606557377049
scalar Network.dyn_peer[18] 	lookupStabilitySig:mean 	0.48834244061689
scalar Network.dyn_peer[18] 	lookupHopsSig:mean 	4.1016393442623
scalar Network.dyn_peer[19] 	lookupTimeSig:mean 	0.50785714285714
scalar Network.dyn_peer[19] 	lookupStabilitySig:mean 	0.42132936503206
scalar Network.dyn_peer[19] 	lookupHopsSig:mean 	4.6321428571429
scalar Network.dyn_peer[20] 	lookupTimeSig:mean 	0.47167235494881
scalar Network.dyn_peer[20] 	lookupStabilitySig:mean 	0.47440273037543
scalar Network.dyn_peer[20] 	lookupHopsSig:mean 	4.2047781569966
scalar Network.dyn_peer[21] 	lookupTimeSig:mean 	0.45540983606557
scalar Network.dyn_peer[21] 	lookupStabilitySig:mean 	0.50132058287253
scalar Network.dyn_peer[21] 	lookupHopsSig:mean 	3.9901639344262
scalar Network.dyn_peer[22] 	lookupTimeSig:mean 	0.46172413793103
scalar Network.dyn_peer[22] 	lookupStabilitySig:mean 	0.48706896551724
scalar Network.dyn_peer[22] 	lookupHopsSig:mean 	4.1034482758621
scalar Network.dyn_peer[23] 	lookupTimeSig:mean 	0.48297101449275
scalar Network.dyn_peer[23] 	lookupStabilitySig:mean 	0.44650764892931
scalar Network.dyn_peer[23] 	lookupHopsSig:mean 	4.4311594202899
scalar Network.dyn_peer[24] 	lookupTimeSig:mean 	0.47172413793104
scalar Network.dyn_peer[24] 	lookupStabilitySig:mean 	0.47399425280505
scalar Network.dyn_peer[24] 	lookupHopsSig:mean 	4.2103448275862
scalar Network.dyn_peer[25] 	lookupTimeSig:mean 	0.47323943661972
scalar Network.dyn_peer[25] 	lookupStabilitySig:mean 	0.4769170578097
scalar Network.dyn_peer[25] 	lookupHopsSig:mean 	4.1866197183099
scalar Network.dyn_peer[26] 	lookupTimeSig:mean 	0.42458471760797
scalar Network.dyn_peer[26] 	lookupStabilitySig:mean 	0.53262273893008
scalar Network.dyn_peer[26] 	lookupHopsSig:mean 	3.7408637873754
scalar Network.dyn_peer[27] 	lookupTimeSig:mean 	0.46842105263158
scalar Network.dyn_peer[27] 	lookupStabilitySig:mean 	0.47377558474086
scalar Network.dyn_peer[27] 	lookupHopsSig:mean 	4.2138157894737
scalar Network.dyn_peer[28] 	lookupTimeSig:mean 	0.46541095890411
scalar Network.dyn_peer[28] 	lookupStabilitySig:mean 	0.47602739715821
scalar Network.dyn_peer[28] 	lookupHopsSig:mean 	4.1952054794521
scalar Network.dyn_peer[29] 	lookupTimeSig:mean 	0.44509803921569
scalar Network.dyn_peer[29] 	lookupStabilitySig:mean 	0.51089324617113
scalar Network.dyn_peer[29] 	lookupHopsSig:mean 	3.9150326797386
scalar Network.dyn_peer[30] 	lookupTimeSig:mean 	0.42237288135593
scalar Network.dyn_peer[30] 	lookupStabilitySig:mean 	0.53771186440678
scalar Network.dyn_peer[30] 	lookupHopsSig:mean 	3.6983050847458
scalar Network.dyn_peer[31] 	lookupTimeSig:mean 	0.45389830508475
scalar Network.dyn_peer[31] 	lookupStabilitySig:mean 	0.49307909602836
scalar Network.dyn_peer[31] 	lookupHopsSig:mean 	4.0576271186441
