version 2
run Stability-norelink-137-20130525-23:23:11-22103
attr configname Stability-norelink
attr datetime 20130525-23:23:11
attr experiment Stability
attr inifile omnetpp.ini
attr iterationvars $0=1e-7
attr iterationvars2 "$0=1e-7, $repetition=7"
attr measurement $0=1e-7
attr network Network
attr processid 22103
attr repetition 7
attr replication #7
attr resultdir results
attr runnumber 137
attr seedset 137

scalar Network.dyn_peer[0] 	lookupTimeSig:mean 	0.48485915492958
scalar Network.dyn_peer[0] 	lookupStabilitySig:mean 	0.45290492957746
scalar Network.dyn_peer[0] 	lookupHopsSig:mean 	4.3767605633803
scalar Network.dyn_peer[1] 	lookupTimeSig:mean 	0.48350168350168
scalar Network.dyn_peer[1] 	lookupStabilitySig:mean 	0.45468574631896
scalar Network.dyn_peer[1] 	lookupHopsSig:mean 	4.3670033670034
scalar Network.dyn_peer[2] 	lookupTimeSig:mean 	0.48916083916084
scalar Network.dyn_peer[2] 	lookupStabilitySig:mean 	0.44672688422399
scalar Network.dyn_peer[2] 	lookupHopsSig:mean 	4.4265734265734
scalar Network.dyn_peer[3] 	lookupTimeSig:mean 	0.515770609319
scalar Network.dyn_peer[3] 	lookupStabilitySig:mean 	0.41138988450223
scalar Network.dyn_peer[3] 	lookupHopsSig:mean 	4.7096774193548
scalar Network.dyn_peer[4] 	lookupTimeSig:mean 	0.48976897689769
scalar Network.dyn_peer[4] 	lookupStabilitySig:mean 	0.44430693064389
scalar Network.dyn_peer[4] 	lookupHopsSig:mean 	4.4488448844884
scalar Network.dyn_peer[5] 	lookupTimeSig:mean 	0.45824561403509
scalar Network.dyn_peer[5] 	lookupStabilitySig:mean 	0.48698830408485
scalar Network.dyn_peer[5] 	lookupHopsSig:mean 	4.1052631578947
scalar Network.dyn_peer[6] 	lookupTimeSig:mean 	0.47601351351351
scalar Network.dyn_peer[6] 	lookupStabilitySig:mean 	0.46250938437879
scalar Network.dyn_peer[6] 	lookupHopsSig:mean 	4.3006756756757
scalar Network.dyn_peer[7] 	lookupTimeSig:mean 	0.45776397515528
scalar Network.dyn_peer[7] 	lookupStabilitySig:mean 	0.49529848169096
scalar Network.dyn_peer[7] 	lookupHopsSig:mean 	4.0403726708075
scalar Network.dyn_peer[8] 	lookupTimeSig:mean 	0.47074829931973
scalar Network.dyn_peer[8] 	lookupStabilitySig:mean 	0.46688397578439
scalar Network.dyn_peer[8] 	lookupHopsSig:mean 	4.2687074829932
scalar Network.dyn_peer[9] 	lookupTimeSig:mean 	0.50383275261324
scalar Network.dyn_peer[9] 	lookupStabilitySig:mean 	0.4131339526758
scalar Network.dyn_peer[9] 	lookupHopsSig:mean 	4.6968641114983
scalar Network.dyn_peer[10] 	lookupTimeSig:mean 	0.47533333333333
scalar Network.dyn_peer[10] 	lookupStabilitySig:mean 	0.46402777773639
scalar Network.dyn_peer[10] 	lookupHopsSig:mean 	4.29
scalar Network.dyn_peer[11] 	lookupTimeSig:mean 	0.49607142857143
scalar Network.dyn_peer[11] 	lookupStabilitySig:mean 	0.44107142857143
scalar Network.dyn_peer[11] 	lookupHopsSig:mean 	4.4714285714286
scalar Network.dyn_peer[12] 	lookupTimeSig:mean 	0.49503311258278
scalar Network.dyn_peer[12] 	lookupStabilitySig:mean 	0.44306475345958
scalar Network.dyn_peer[12] 	lookupHopsSig:mean 	4.4569536423841
scalar Network.dyn_peer[13] 	lookupTimeSig:mean 	0.48833333333333
scalar Network.dyn_peer[13] 	lookupStabilitySig:mean 	0.44777777768672
scalar Network.dyn_peer[13] 	lookupHopsSig:mean 	4.42
scalar Network.dyn_peer[14] 	lookupTimeSig:mean 	0.47954545454545
scalar Network.dyn_peer[14] 	lookupStabilitySig:mean 	0.46063311688312
scalar Network.dyn_peer[14] 	lookupHopsSig:mean 	4.3149350649351
scalar Network.dyn_peer[15] 	lookupTimeSig:mean 	0.52
scalar Network.dyn_peer[15] 	lookupStabilitySig:mean 	0.40445402285148
scalar Network.dyn_peer[15] 	lookupHopsSig:mean 	4.7689655172414
scalar Network.dyn_peer[16] 	lookupTimeSig:mean 	0.49897260273973
scalar Network.dyn_peer[16] 	lookupStabilitySig:mean 	0.43669140030158
scalar Network.dyn_peer[16] 	lookupHopsSig:mean 	4.5068493150685
scalar Network.dyn_peer[17] 	lookupTimeSig:mean 	0.47533783783784
scalar Network.dyn_peer[17] 	lookupStabilitySig:mean 	0.47564752248896
scalar Network.dyn_peer[17] 	lookupHopsSig:mean 	4.1959459459459
scalar Network.dyn_peer[18] 	lookupTimeSig:mean 	0.4771986970684
scalar Network.dyn_peer[18] 	lookupStabilitySig:mean 	0.46661237785016
scalar Network.dyn_peer[18] 	lookupHopsSig:mean 	4.2671009771987
scalar Network.dyn_peer[19] 	lookupTimeSig:mean 	0.46496598639456
scalar Network.dyn_peer[19] 	lookupStabilitySig:mean 	0.48346560846279
scalar Network.dyn_peer[19] 	lookupHopsSig:mean 	4.1326530612245
scalar Network.dyn_peer[20] 	lookupTimeSig:mean 	0.48833333333333
scalar Network.dyn_peer[20] 	lookupStabilitySig:mean 	0.44800925925374
scalar Network.dyn_peer[20] 	lookupHopsSig:mean 	4.4166666666667
scalar Network.dyn_peer[21] 	lookupTimeSig:mean 	0.46745762711864
scalar Network.dyn_peer[21] 	lookupStabilitySig:mean 	0.47532956681009
scalar Network.dyn_peer[21] 	lookupHopsSig:mean 	4.2
scalar Network.dyn_peer[22] 	lookupTimeSig:mean 	0.50505415162455
scalar Network.dyn_peer[22] 	lookupStabilitySig:mean 	0.41516245487365
scalar Network.dyn_peer[22] 	lookupHopsSig:mean 	4.6787003610108
scalar Network.dyn_peer[23] 	lookupTimeSig:mean 	0.48827586206897
scalar Network.dyn_peer[23] 	lookupStabilitySig:mean 	0.44832375478642
scalar Network.dyn_peer[23] 	lookupHopsSig:mean 	4.4137931034483
scalar Network.dyn_peer[24] 	lookupTimeSig:mean 	0.48712871287129
scalar Network.dyn_peer[24] 	lookupStabilitySig:mean 	0.45498716521381
scalar Network.dyn_peer[24] 	lookupHopsSig:mean 	4.3663366336634
scalar Network.dyn_peer[25] 	lookupTimeSig:mean 	0.45244299674267
scalar Network.dyn_peer[25] 	lookupStabilitySig:mean 	0.49819037264838
scalar Network.dyn_peer[25] 	lookupHopsSig:mean 	4.0195439739414
scalar Network.dyn_peer[26] 	lookupTimeSig:mean 	0.49349315068493
scalar Network.dyn_peer[26] 	lookupStabilitySig:mean 	0.43707191780822
scalar Network.dyn_peer[26] 	lookupHopsSig:mean 	4.5034246575342
scalar Network.dyn_peer[27] 	lookupTimeSig:mean 	0.47950530035336
scalar Network.dyn_peer[27] 	lookupStabilitySig:mean 	0.46279937173684
scalar Network.dyn_peer[27] 	lookupHopsSig:mean 	4.3003533568905
scalar Network.dyn_peer[28] 	lookupTimeSig:mean 	0.47132867132867
scalar Network.dyn_peer[28] 	lookupStabilitySig:mean 	0.47688422685528
scalar Network.dyn_peer[28] 	lookupHopsSig:mean 	4.1888111888112
scalar Network.dyn_peer[29] 	lookupTimeSig:mean 	0.45951557093426
scalar Network.dyn_peer[29] 	lookupStabilitySig:mean 	0.49120530553136
scalar Network.dyn_peer[29] 	lookupHopsSig:mean 	4.076124567474
scalar Network.dyn_peer[30] 	lookupTimeSig:mean 	0.47734627831715
scalar Network.dyn_peer[30] 	lookupStabilitySig:mean 	0.46682847891618
scalar Network.dyn_peer[30] 	lookupHopsSig:mean 	4.2686084142395
scalar Network.dyn_peer[31] 	lookupTimeSig:mean 	0.45886075949367
scalar Network.dyn_peer[31] 	lookupStabilitySig:mean 	0.48729781990376
scalar Network.dyn_peer[31] 	lookupHopsSig:mean 	4.1044303797468
