version 2
run Stability-norelink-45-20130525-23:17:01-22103
attr configname Stability-norelink
attr datetime 20130525-23:17:01
attr experiment Stability
attr inifile omnetpp.ini
attr iterationvars $0=1e2
attr iterationvars2 "$0=1e2, $repetition=5"
attr measurement $0=1e2
attr network Network
attr processid 22103
attr repetition 5
attr replication #5
attr resultdir results
attr runnumber 45
attr seedset 45

scalar Network.dyn_peer[0] 	lookupTimeSig:mean 	0.33799283154122
scalar Network.dyn_peer[0] 	lookupStabilitySig:mean 	0.65188172043011
scalar Network.dyn_peer[0] 	lookupHopsSig:mean 	2.7849462365591
scalar Network.dyn_peer[1] 	lookupTimeSig:mean 	0.35065359477124
scalar Network.dyn_peer[1] 	lookupStabilitySig:mean 	0.63861655772609
scalar Network.dyn_peer[1] 	lookupHopsSig:mean 	2.8921568627451
scalar Network.dyn_peer[2] 	lookupTimeSig:mean 	0.3547703180212
scalar Network.dyn_peer[2] 	lookupStabilitySig:mean 	0.62784648602401
scalar Network.dyn_peer[2] 	lookupHopsSig:mean 	2.9787985865724
scalar Network.dyn_peer[3] 	lookupTimeSig:mean 	0.33707482993197
scalar Network.dyn_peer[3] 	lookupStabilitySig:mean 	0.65258881320455
scalar Network.dyn_peer[3] 	lookupHopsSig:mean 	2.7823129251701
scalar Network.dyn_peer[4] 	lookupTimeSig:mean 	0.32621359223301
scalar Network.dyn_peer[4] 	lookupStabilitySig:mean 	0.67354368932039
scalar Network.dyn_peer[4] 	lookupHopsSig:mean 	2.6116504854369
scalar Network.dyn_peer[5] 	lookupTimeSig:mean 	0.34163568773234
scalar Network.dyn_peer[5] 	lookupStabilitySig:mean 	0.63904378355436
scalar Network.dyn_peer[5] 	lookupHopsSig:mean 	2.8884758364312
scalar Network.dyn_peer[6] 	lookupTimeSig:mean 	0.33924528301887
scalar Network.dyn_peer[6] 	lookupStabilitySig:mean 	0.65330188670811
scalar Network.dyn_peer[6] 	lookupHopsSig:mean 	2.777358490566
scalar Network.dyn_peer[7] 	lookupTimeSig:mean 	0.34498269896194
scalar Network.dyn_peer[7] 	lookupStabilitySig:mean 	0.64816416758773
scalar Network.dyn_peer[7] 	lookupHopsSig:mean 	2.8166089965398
scalar Network.dyn_peer[8] 	lookupTimeSig:mean 	0.34964285714286
scalar Network.dyn_peer[8] 	lookupStabilitySig:mean 	0.63169642857143
scalar Network.dyn_peer[8] 	lookupHopsSig:mean 	2.9464285714286
scalar Network.dyn_peer[9] 	lookupTimeSig:mean 	0.33333333333333
scalar Network.dyn_peer[9] 	lookupStabilitySig:mean 	0.6551371082568
scalar Network.dyn_peer[9] 	lookupHopsSig:mean 	2.7596153846154
scalar Network.dyn_peer[10] 	lookupTimeSig:mean 	0.34840989399293
scalar Network.dyn_peer[10] 	lookupStabilitySig:mean 	0.63481546917358
scalar Network.dyn_peer[10] 	lookupHopsSig:mean 	2.9222614840989
scalar Network.dyn_peer[11] 	lookupTimeSig:mean 	0.34363636363636
scalar Network.dyn_peer[11] 	lookupStabilitySig:mean 	0.63969696968794
scalar Network.dyn_peer[11] 	lookupHopsSig:mean 	2.8836363636364
scalar Network.dyn_peer[12] 	lookupTimeSig:mean 	0.3477508650519
scalar Network.dyn_peer[12] 	lookupStabilitySig:mean 	0.64282968078311
scalar Network.dyn_peer[12] 	lookupHopsSig:mean 	2.8615916955017
scalar Network.dyn_peer[13] 	lookupTimeSig:mean 	0.35521885521886
scalar Network.dyn_peer[13] 	lookupStabilitySig:mean 	0.62934904598226
scalar Network.dyn_peer[13] 	lookupHopsSig:mean 	2.96632996633
scalar Network.dyn_peer[14] 	lookupTimeSig:mean 	0.32206896551724
scalar Network.dyn_peer[14] 	lookupStabilitySig:mean 	0.67428160918684
scalar Network.dyn_peer[14] 	lookupHopsSig:mean 	2.6068965517241
scalar Network.dyn_peer[15] 	lookupTimeSig:mean 	0.33617747440273
scalar Network.dyn_peer[15] 	lookupStabilitySig:mean 	0.65382062946367
scalar Network.dyn_peer[15] 	lookupHopsSig:mean 	2.7713310580205
scalar Network.dyn_peer[16] 	lookupTimeSig:mean 	0.35236363636364
scalar Network.dyn_peer[16] 	lookupStabilitySig:mean 	0.62883838379925
scalar Network.dyn_peer[16] 	lookupHopsSig:mean 	2.9709090909091
scalar Network.dyn_peer[17] 	lookupTimeSig:mean 	0.34078014184397
scalar Network.dyn_peer[17] 	lookupStabilitySig:mean 	0.64420803778983
scalar Network.dyn_peer[17] 	lookupHopsSig:mean 	2.8475177304965
scalar Network.dyn_peer[18] 	lookupTimeSig:mean 	0.33767605633803
scalar Network.dyn_peer[18] 	lookupStabilitySig:mean 	0.65062597808494
scalar Network.dyn_peer[18] 	lookupHopsSig:mean 	2.7957746478873
scalar Network.dyn_peer[19] 	lookupTimeSig:mean 	0.34466666666667
scalar Network.dyn_peer[19] 	lookupStabilitySig:mean 	0.64541666666667
scalar Network.dyn_peer[19] 	lookupHopsSig:mean 	2.8366666666667
scalar Network.dyn_peer[20] 	lookupTimeSig:mean 	0.32952029520295
scalar Network.dyn_peer[20] 	lookupStabilitySig:mean 	0.66846043459824
scalar Network.dyn_peer[20] 	lookupHopsSig:mean 	2.6531365313653
scalar Network.dyn_peer[21] 	lookupTimeSig:mean 	0.33286219081272
scalar Network.dyn_peer[21] 	lookupStabilitySig:mean 	0.66087553984495
scalar Network.dyn_peer[21] 	lookupHopsSig:mean 	2.7137809187279
scalar Network.dyn_peer[22] 	lookupTimeSig:mean 	0.35054945054945
scalar Network.dyn_peer[22] 	lookupStabilitySig:mean 	0.63024013020071
scalar Network.dyn_peer[22] 	lookupHopsSig:mean 	2.959706959707
scalar Network.dyn_peer[23] 	lookupTimeSig:mean 	0.34135338345865
scalar Network.dyn_peer[23] 	lookupStabilitySig:mean 	0.64337928153406
scalar Network.dyn_peer[23] 	lookupHopsSig:mean 	2.8533834586466
scalar Network.dyn_peer[24] 	lookupTimeSig:mean 	0.32621722846442
scalar Network.dyn_peer[24] 	lookupStabilitySig:mean 	0.66448189750704
scalar Network.dyn_peer[24] 	lookupHopsSig:mean 	2.689138576779
scalar Network.dyn_peer[25] 	lookupTimeSig:mean 	0.34595588235294
scalar Network.dyn_peer[25] 	lookupStabilitySig:mean 	0.63689746729591
scalar Network.dyn_peer[25] 	lookupHopsSig:mean 	2.9080882352941
scalar Network.dyn_peer[26] 	lookupTimeSig:mean 	0.35318352059925
scalar Network.dyn_peer[26] 	lookupStabilitySig:mean 	0.6310861423221
scalar Network.dyn_peer[26] 	lookupHopsSig:mean 	2.9513108614232
scalar Network.dyn_peer[27] 	lookupTimeSig:mean 	0.35
scalar Network.dyn_peer[27] 	lookupStabilitySig:mean 	0.63375603861135
scalar Network.dyn_peer[27] 	lookupHopsSig:mean 	2.9311594202899
scalar Network.dyn_peer[28] 	lookupTimeSig:mean 	0.34084967320261
scalar Network.dyn_peer[28] 	lookupStabilitySig:mean 	0.64869281045752
scalar Network.dyn_peer[28] 	lookupHopsSig:mean 	2.8104575163399
scalar Network.dyn_peer[29] 	lookupTimeSig:mean 	0.33161764705882
scalar Network.dyn_peer[29] 	lookupStabilitySig:mean 	0.65625
scalar Network.dyn_peer[29] 	lookupHopsSig:mean 	2.75
scalar Network.dyn_peer[30] 	lookupTimeSig:mean 	0.35105633802817
scalar Network.dyn_peer[30] 	lookupStabilitySig:mean 	0.63262910794624
scalar Network.dyn_peer[30] 	lookupHopsSig:mean 	2.9401408450704
scalar Network.dyn_peer[31] 	lookupTimeSig:mean 	0.32928571428571
scalar Network.dyn_peer[31] 	lookupStabilitySig:mean 	0.66661706348615
scalar Network.dyn_peer[31] 	lookupHopsSig:mean 	2.6678571428571
