version 2
run Stability-norelink-109-20130525-23:21:17-22103
attr configname Stability-norelink
attr datetime 20130525-23:21:17
attr experiment Stability
attr inifile omnetpp.ini
attr iterationvars $0=1e-4
attr iterationvars2 "$0=1e-4, $repetition=9"
attr measurement $0=1e-4
attr network Network
attr processid 22103
attr repetition 9
attr replication #9
attr resultdir results
attr runnumber 109
attr seedset 109

scalar Network.dyn_peer[0] 	lookupTimeSig:mean 	0.45063291139241
scalar Network.dyn_peer[0] 	lookupStabilitySig:mean 	0.50782348795594
scalar Network.dyn_peer[0] 	lookupHopsSig:mean 	3.9430379746835
scalar Network.dyn_peer[1] 	lookupTimeSig:mean 	0.47147887323944
scalar Network.dyn_peer[1] 	lookupStabilitySig:mean 	0.46170774647887
scalar Network.dyn_peer[1] 	lookupHopsSig:mean 	4.306338028169
scalar Network.dyn_peer[2] 	lookupTimeSig:mean 	0.44730158730159
scalar Network.dyn_peer[2] 	lookupStabilitySig:mean 	0.50696649021573
scalar Network.dyn_peer[2] 	lookupHopsSig:mean 	3.9460317460317
scalar Network.dyn_peer[3] 	lookupTimeSig:mean 	0.50602836879433
scalar Network.dyn_peer[3] 	lookupStabilitySig:mean 	0.41651891240626
scalar Network.dyn_peer[3] 	lookupHopsSig:mean 	4.6737588652482
scalar Network.dyn_peer[4] 	lookupTimeSig:mean 	0.47548387096774
scalar Network.dyn_peer[4] 	lookupStabilitySig:mean 	0.46953405016853
scalar Network.dyn_peer[4] 	lookupHopsSig:mean 	4.2451612903226
scalar Network.dyn_peer[5] 	lookupTimeSig:mean 	0.47491525423729
scalar Network.dyn_peer[5] 	lookupStabilitySig:mean 	0.4624293784974
scalar Network.dyn_peer[5] 	lookupHopsSig:mean 	4.3016949152542
scalar Network.dyn_peer[6] 	lookupTimeSig:mean 	0.48919860627178
scalar Network.dyn_peer[6] 	lookupStabilitySig:mean 	0.44831591169593
scalar Network.dyn_peer[6] 	lookupHopsSig:mean 	4.4146341463415
scalar Network.dyn_peer[7] 	lookupTimeSig:mean 	0.46421725239617
scalar Network.dyn_peer[7] 	lookupStabilitySig:mean 	0.47741391550238
scalar Network.dyn_peer[7] 	lookupHopsSig:mean 	4.1821086261981
scalar Network.dyn_peer[8] 	lookupTimeSig:mean 	0.45083056478405
scalar Network.dyn_peer[8] 	lookupStabilitySig:mean 	0.50184569950912
scalar Network.dyn_peer[8] 	lookupHopsSig:mean 	3.9867109634551
scalar Network.dyn_peer[9] 	lookupTimeSig:mean 	0.47097902097902
scalar Network.dyn_peer[9] 	lookupStabilitySig:mean 	0.47499028739187
scalar Network.dyn_peer[9] 	lookupHopsSig:mean 	4.2027972027972
scalar Network.dyn_peer[10] 	lookupTimeSig:mean 	0.48383838383838
scalar Network.dyn_peer[10] 	lookupStabilitySig:mean 	0.45828656932521
scalar Network.dyn_peer[10] 	lookupHopsSig:mean 	4.3400673400673
scalar Network.dyn_peer[11] 	lookupTimeSig:mean 	0.4675
scalar Network.dyn_peer[11] 	lookupStabilitySig:mean 	0.47276785714286
scalar Network.dyn_peer[11] 	lookupHopsSig:mean 	4.2178571428571
scalar Network.dyn_peer[12] 	lookupTimeSig:mean 	0.48415094339623
scalar Network.dyn_peer[12] 	lookupStabilitySig:mean 	0.45471698110396
scalar Network.dyn_peer[12] 	lookupHopsSig:mean 	4.3660377358491
scalar Network.dyn_peer[13] 	lookupTimeSig:mean 	0.5
scalar Network.dyn_peer[13] 	lookupStabilitySig:mean 	0.43506493506494
scalar Network.dyn_peer[13] 	lookupHopsSig:mean 	4.5194805194805
scalar Network.dyn_peer[14] 	lookupTimeSig:mean 	0.46336633663366
scalar Network.dyn_peer[14] 	lookupStabilitySig:mean 	0.48111477813902
scalar Network.dyn_peer[14] 	lookupHopsSig:mean 	4.1518151815182
scalar Network.dyn_peer[15] 	lookupTimeSig:mean 	0.46474358974359
scalar Network.dyn_peer[15] 	lookupStabilitySig:mean 	0.47796474358974
scalar Network.dyn_peer[15] 	lookupHopsSig:mean 	4.1762820512821
scalar Network.dyn_peer[16] 	lookupTimeSig:mean 	0.47986577181208
scalar Network.dyn_peer[16] 	lookupStabilitySig:mean 	0.46504474266263
scalar Network.dyn_peer[16] 	lookupHopsSig:mean 	4.2818791946309
scalar Network.dyn_peer[17] 	lookupTimeSig:mean 	0.45298013245033
scalar Network.dyn_peer[17] 	lookupStabilitySig:mean 	0.49282560699823
scalar Network.dyn_peer[17] 	lookupHopsSig:mean 	4.0596026490066
scalar Network.dyn_peer[18] 	lookupTimeSig:mean 	0.46845637583893
scalar Network.dyn_peer[18] 	lookupStabilitySig:mean 	0.47525167785235
scalar Network.dyn_peer[18] 	lookupHopsSig:mean 	4.1979865771812
scalar Network.dyn_peer[19] 	lookupTimeSig:mean 	0.49149659863946
scalar Network.dyn_peer[19] 	lookupStabilitySig:mean 	0.44567271352422
scalar Network.dyn_peer[19] 	lookupHopsSig:mean 	4.4353741496599
scalar Network.dyn_peer[20] 	lookupTimeSig:mean 	0.47408637873754
scalar Network.dyn_peer[20] 	lookupStabilitySig:mean 	0.47093023231061
scalar Network.dyn_peer[20] 	lookupHopsSig:mean 	4.2392026578073
scalar Network.dyn_peer[21] 	lookupTimeSig:mean 	0.47702702702703
scalar Network.dyn_peer[21] 	lookupStabilitySig:mean 	0.46415165164885
scalar Network.dyn_peer[21] 	lookupHopsSig:mean 	4.2871621621622
scalar Network.dyn_peer[22] 	lookupTimeSig:mean 	0.47626582278481
scalar Network.dyn_peer[22] 	lookupStabilitySig:mean 	0.46681610407614
scalar Network.dyn_peer[22] 	lookupHopsSig:mean 	4.2658227848101
scalar Network.dyn_peer[23] 	lookupTimeSig:mean 	0.45261437908497
scalar Network.dyn_peer[23] 	lookupStabilitySig:mean 	0.50122549019608
scalar Network.dyn_peer[23] 	lookupHopsSig:mean 	3.9901960784314
scalar Network.dyn_peer[24] 	lookupTimeSig:mean 	0.46607142857143
scalar Network.dyn_peer[24] 	lookupStabilitySig:mean 	0.48095238094351
scalar Network.dyn_peer[24] 	lookupHopsSig:mean 	4.1535714285714
scalar Network.dyn_peer[25] 	lookupTimeSig:mean 	0.48245033112583
scalar Network.dyn_peer[25] 	lookupStabilitySig:mean 	0.45640176598797
scalar Network.dyn_peer[25] 	lookupHopsSig:mean 	4.3509933774834
scalar Network.dyn_peer[26] 	lookupTimeSig:mean 	0.5351724137931
scalar Network.dyn_peer[26] 	lookupStabilitySig:mean 	0.3926724137931
scalar Network.dyn_peer[26] 	lookupHopsSig:mean 	4.8586206896552
scalar Network.dyn_peer[27] 	lookupTimeSig:mean 	0.5051724137931
scalar Network.dyn_peer[27] 	lookupStabilitySig:mean 	0.41877394626881
scalar Network.dyn_peer[27] 	lookupHopsSig:mean 	4.651724137931
scalar Network.dyn_peer[28] 	lookupTimeSig:mean 	0.52830882352941
scalar Network.dyn_peer[28] 	lookupStabilitySig:mean 	0.39154411764706
scalar Network.dyn_peer[28] 	lookupHopsSig:mean 	4.8676470588235
scalar Network.dyn_peer[29] 	lookupTimeSig:mean 	0.50103806228374
scalar Network.dyn_peer[29] 	lookupStabilitySig:mean 	0.43223760088835
scalar Network.dyn_peer[29] 	lookupHopsSig:mean 	4.5432525951557
scalar Network.dyn_peer[30] 	lookupTimeSig:mean 	0.47030303030303
scalar Network.dyn_peer[30] 	lookupStabilitySig:mean 	0.4810606059703
scalar Network.dyn_peer[30] 	lookupHopsSig:mean 	4.1545454545455
scalar Network.dyn_peer[31] 	lookupTimeSig:mean 	0.43624161073826
scalar Network.dyn_peer[31] 	lookupStabilitySig:mean 	0.51999440714217
scalar Network.dyn_peer[31] 	lookupHopsSig:mean 	3.8422818791946
