version 2
run Stability-norelink-145-20130525-23:23:43-22103
attr configname Stability-norelink
attr datetime 20130525-23:23:43
attr experiment Stability
attr inifile omnetpp.ini
attr iterationvars $0=1e-8
attr iterationvars2 "$0=1e-8, $repetition=5"
attr measurement $0=1e-8
attr network Network
attr processid 22103
attr repetition 5
attr replication #5
attr resultdir results
attr runnumber 145
attr seedset 145

scalar Network.dyn_peer[0] 	lookupTimeSig:mean 	0.47040816326531
scalar Network.dyn_peer[0] 	lookupStabilitySig:mean 	0.47250566890045
scalar Network.dyn_peer[0] 	lookupHopsSig:mean 	4.2210884353742
scalar Network.dyn_peer[1] 	lookupTimeSig:mean 	0.47161716171617
scalar Network.dyn_peer[1] 	lookupStabilitySig:mean 	0.4730473046649
scalar Network.dyn_peer[1] 	lookupHopsSig:mean 	4.2178217821782
scalar Network.dyn_peer[2] 	lookupTimeSig:mean 	0.47720588235294
scalar Network.dyn_peer[2] 	lookupStabilitySig:mean 	0.46152982011657
scalar Network.dyn_peer[2] 	lookupHopsSig:mean 	4.3125
scalar Network.dyn_peer[3] 	lookupTimeSig:mean 	0.4496875
scalar Network.dyn_peer[3] 	lookupStabilitySig:mean 	0.5072048611939
scalar Network.dyn_peer[3] 	lookupHopsSig:mean 	3.946875
scalar Network.dyn_peer[4] 	lookupTimeSig:mean 	0.42475247524753
scalar Network.dyn_peer[4] 	lookupStabilitySig:mean 	0.53836633663366
scalar Network.dyn_peer[4] 	lookupHopsSig:mean 	3.6930693069307
scalar Network.dyn_peer[5] 	lookupTimeSig:mean 	0.47857142857143
scalar Network.dyn_peer[5] 	lookupStabilitySig:mean 	0.46230158722633
scalar Network.dyn_peer[5] 	lookupHopsSig:mean 	4.3051948051948
scalar Network.dyn_peer[6] 	lookupTimeSig:mean 	0.49746376811594
scalar Network.dyn_peer[6] 	lookupStabilitySig:mean 	0.44152576476336
scalar Network.dyn_peer[6] 	lookupHopsSig:mean 	4.4710144927536
scalar Network.dyn_peer[7] 	lookupTimeSig:mean 	0.49375
scalar Network.dyn_peer[7] 	lookupStabilitySig:mean 	0.44933296769465
scalar Network.dyn_peer[7] 	lookupHopsSig:mean 	4.4111842105263
scalar Network.dyn_peer[8] 	lookupTimeSig:mean 	0.44087837837838
scalar Network.dyn_peer[8] 	lookupStabilitySig:mean 	0.51421734217454
scalar Network.dyn_peer[8] 	lookupHopsSig:mean 	3.8918918918919
scalar Network.dyn_peer[9] 	lookupTimeSig:mean 	0.44203389830509
scalar Network.dyn_peer[9] 	lookupStabilitySig:mean 	0.50508474576271
scalar Network.dyn_peer[9] 	lookupHopsSig:mean 	3.9593220338983
scalar Network.dyn_peer[10] 	lookupTimeSig:mean 	0.4444089456869
scalar Network.dyn_peer[10] 	lookupStabilitySig:mean 	0.50949591760056
scalar Network.dyn_peer[10] 	lookupHopsSig:mean 	3.926517571885
scalar Network.dyn_peer[11] 	lookupTimeSig:mean 	0.45935483870968
scalar Network.dyn_peer[11] 	lookupStabilitySig:mean 	0.48835125440551
scalar Network.dyn_peer[11] 	lookupHopsSig:mean 	4.0967741935484
scalar Network.dyn_peer[12] 	lookupTimeSig:mean 	0.50985915492958
scalar Network.dyn_peer[12] 	lookupStabilitySig:mean 	0.42199726129921
scalar Network.dyn_peer[12] 	lookupHopsSig:mean 	4.6267605633803
scalar Network.dyn_peer[13] 	lookupTimeSig:mean 	0.47954545454545
scalar Network.dyn_peer[13] 	lookupStabilitySig:mean 	0.46960678210409
scalar Network.dyn_peer[13] 	lookupHopsSig:mean 	4.2435064935065
scalar Network.dyn_peer[14] 	lookupTimeSig:mean 	0.51552346570397
scalar Network.dyn_peer[14] 	lookupStabilitySig:mean 	0.40764139576509
scalar Network.dyn_peer[14] 	lookupHopsSig:mean 	4.7436823104693
scalar Network.dyn_peer[15] 	lookupTimeSig:mean 	0.44728434504792
scalar Network.dyn_peer[15] 	lookupStabilitySig:mean 	0.50328363506748
scalar Network.dyn_peer[15] 	lookupHopsSig:mean 	3.9744408945687
scalar Network.dyn_peer[16] 	lookupTimeSig:mean 	0.46184615384615
scalar Network.dyn_peer[16] 	lookupStabilitySig:mean 	0.4863247863146
scalar Network.dyn_peer[16] 	lookupHopsSig:mean 	4.1107692307692
scalar Network.dyn_peer[17] 	lookupTimeSig:mean 	0.46073825503356
scalar Network.dyn_peer[17] 	lookupStabilitySig:mean 	0.48573825503356
scalar Network.dyn_peer[17] 	lookupHopsSig:mean 	4.1140939597315
scalar Network.dyn_peer[18] 	lookupTimeSig:mean 	0.45882352941176
scalar Network.dyn_peer[18] 	lookupStabilitySig:mean 	0.4895152504635
scalar Network.dyn_peer[18] 	lookupHopsSig:mean 	4.0915032679739
scalar Network.dyn_peer[19] 	lookupTimeSig:mean 	0.4806338028169
scalar Network.dyn_peer[19] 	lookupStabilitySig:mean 	0.46268583713493
scalar Network.dyn_peer[19] 	lookupHopsSig:mean 	4.306338028169
scalar Network.dyn_peer[20] 	lookupTimeSig:mean 	0.47745098039216
scalar Network.dyn_peer[20] 	lookupStabilitySig:mean 	0.45683551190141
scalar Network.dyn_peer[20] 	lookupHopsSig:mean 	4.3496732026144
scalar Network.dyn_peer[21] 	lookupTimeSig:mean 	0.48297101449275
scalar Network.dyn_peer[21] 	lookupStabilitySig:mean 	0.45189210945281
scalar Network.dyn_peer[21] 	lookupHopsSig:mean 	4.3876811594203
scalar Network.dyn_peer[22] 	lookupTimeSig:mean 	0.46612903225806
scalar Network.dyn_peer[22] 	lookupStabilitySig:mean 	0.48104838709677
scalar Network.dyn_peer[22] 	lookupHopsSig:mean 	4.1516129032258
scalar Network.dyn_peer[23] 	lookupTimeSig:mean 	0.45083056478405
scalar Network.dyn_peer[23] 	lookupStabilitySig:mean 	0.49418604651163
scalar Network.dyn_peer[23] 	lookupHopsSig:mean 	4.046511627907
scalar Network.dyn_peer[24] 	lookupTimeSig:mean 	0.46498422712934
scalar Network.dyn_peer[24] 	lookupStabilitySig:mean 	0.47752365930599
scalar Network.dyn_peer[24] 	lookupHopsSig:mean 	4.1798107255521
scalar Network.dyn_peer[25] 	lookupTimeSig:mean 	0.47176870748299
scalar Network.dyn_peer[25] 	lookupStabilitySig:mean 	0.47359221464112
scalar Network.dyn_peer[25] 	lookupHopsSig:mean 	4.2142857142857
scalar Network.dyn_peer[26] 	lookupTimeSig:mean 	0.47534246575343
scalar Network.dyn_peer[26] 	lookupStabilitySig:mean 	0.46518264838482
scalar Network.dyn_peer[26] 	lookupHopsSig:mean 	4.2808219178082
scalar Network.dyn_peer[27] 	lookupTimeSig:mean 	0.47003484320558
scalar Network.dyn_peer[27] 	lookupStabilitySig:mean 	0.47314169566806
scalar Network.dyn_peer[27] 	lookupHopsSig:mean 	4.2160278745645
scalar Network.dyn_peer[28] 	lookupTimeSig:mean 	0.48
scalar Network.dyn_peer[28] 	lookupStabilitySig:mean 	0.46296296294844
scalar Network.dyn_peer[28] 	lookupHopsSig:mean 	4.2982456140351
scalar Network.dyn_peer[29] 	lookupTimeSig:mean 	0.46587837837838
scalar Network.dyn_peer[29] 	lookupStabilitySig:mean 	0.47531906902991
scalar Network.dyn_peer[29] 	lookupHopsSig:mean 	4.1993243243243
scalar Network.dyn_peer[30] 	lookupTimeSig:mean 	0.49753521126761
scalar Network.dyn_peer[30] 	lookupStabilitySig:mean 	0.43740219085044
scalar Network.dyn_peer[30] 	lookupHopsSig:mean 	4.5035211267606
scalar Network.dyn_peer[31] 	lookupTimeSig:mean 	0.48771929824561
scalar Network.dyn_peer[31] 	lookupStabilitySig:mean 	0.45521442482346
scalar Network.dyn_peer[31] 	lookupHopsSig:mean 	4.3614035087719
