version 2
run Stability-norelink-112-20130525-23:21:30-22103
attr configname Stability-norelink
attr datetime 20130525-23:21:30
attr experiment Stability
attr inifile omnetpp.ini
attr iterationvars $0=1e-5
attr iterationvars2 "$0=1e-5, $repetition=2"
attr measurement $0=1e-5
attr network Network
attr processid 22103
attr repetition 2
attr replication #2
attr resultdir results
attr runnumber 112
attr seedset 112

scalar Network.dyn_peer[0] 	lookupTimeSig:mean 	0.49241877256318
scalar Network.dyn_peer[0] 	lookupStabilitySig:mean 	0.4413357400722
scalar Network.dyn_peer[0] 	lookupHopsSig:mean 	4.4729241877256
scalar Network.dyn_peer[1] 	lookupTimeSig:mean 	0.48508474576271
scalar Network.dyn_peer[1] 	lookupStabilitySig:mean 	0.45136534831787
scalar Network.dyn_peer[1] 	lookupHopsSig:mean 	4.3932203389831
scalar Network.dyn_peer[2] 	lookupTimeSig:mean 	0.45493421052632
scalar Network.dyn_peer[2] 	lookupStabilitySig:mean 	0.49620796774367
scalar Network.dyn_peer[2] 	lookupHopsSig:mean 	4.0361842105263
scalar Network.dyn_peer[3] 	lookupTimeSig:mean 	0.46602564102564
scalar Network.dyn_peer[3] 	lookupStabilitySig:mean 	0.47115384615385
scalar Network.dyn_peer[3] 	lookupHopsSig:mean 	4.2307692307692
scalar Network.dyn_peer[4] 	lookupTimeSig:mean 	0.45681063122924
scalar Network.dyn_peer[4] 	lookupStabilitySig:mean 	0.48971022516984
scalar Network.dyn_peer[4] 	lookupHopsSig:mean 	4.0830564784053
scalar Network.dyn_peer[5] 	lookupTimeSig:mean 	0.47931034482759
scalar Network.dyn_peer[5] 	lookupStabilitySig:mean 	0.45967432946481
scalar Network.dyn_peer[5] 	lookupHopsSig:mean 	4.3241379310345
scalar Network.dyn_peer[6] 	lookupTimeSig:mean 	0.49852398523985
scalar Network.dyn_peer[6] 	lookupStabilitySig:mean 	0.42876178752012
scalar Network.dyn_peer[6] 	lookupHopsSig:mean 	4.5719557195572
scalar Network.dyn_peer[7] 	lookupTimeSig:mean 	0.52148148148148
scalar Network.dyn_peer[7] 	lookupStabilitySig:mean 	0.38858024687679
scalar Network.dyn_peer[7] 	lookupHopsSig:mean 	4.8925925925926
scalar Network.dyn_peer[8] 	lookupTimeSig:mean 	0.47525423728814
scalar Network.dyn_peer[8] 	lookupStabilitySig:mean 	0.46897363458144
scalar Network.dyn_peer[8] 	lookupHopsSig:mean 	4.2610169491525
scalar Network.dyn_peer[9] 	lookupTimeSig:mean 	0.47015873015873
scalar Network.dyn_peer[9] 	lookupStabilitySig:mean 	0.47394179891026
scalar Network.dyn_peer[9] 	lookupHopsSig:mean 	4.2095238095238
scalar Network.dyn_peer[10] 	lookupTimeSig:mean 	0.47266435986159
scalar Network.dyn_peer[10] 	lookupStabilitySig:mean 	0.46534986520721
scalar Network.dyn_peer[10] 	lookupHopsSig:mean 	4.2837370242215
scalar Network.dyn_peer[11] 	lookupTimeSig:mean 	0.5029520295203
scalar Network.dyn_peer[11] 	lookupStabilitySig:mean 	0.42758302583026
scalar Network.dyn_peer[11] 	lookupHopsSig:mean 	4.5793357933579
scalar Network.dyn_peer[12] 	lookupTimeSig:mean 	0.45313432835821
scalar Network.dyn_peer[12] 	lookupStabilitySig:mean 	0.50058043116509
scalar Network.dyn_peer[12] 	lookupHopsSig:mean 	3.9970149253731
scalar Network.dyn_peer[13] 	lookupTimeSig:mean 	0.46634920634921
scalar Network.dyn_peer[13] 	lookupStabilitySig:mean 	0.48249559073694
scalar Network.dyn_peer[13] 	lookupHopsSig:mean 	4.1460317460317
scalar Network.dyn_peer[14] 	lookupTimeSig:mean 	0.49311475409836
scalar Network.dyn_peer[14] 	lookupStabilitySig:mean 	0.44576502725726
scalar Network.dyn_peer[14] 	lookupHopsSig:mean 	4.4360655737705
scalar Network.dyn_peer[15] 	lookupTimeSig:mean 	0.45166666666667
scalar Network.dyn_peer[15] 	lookupStabilitySig:mean 	0.49402777771155
scalar Network.dyn_peer[15] 	lookupHopsSig:mean 	4.05
scalar Network.dyn_peer[16] 	lookupTimeSig:mean 	0.47195945945946
scalar Network.dyn_peer[16] 	lookupStabilitySig:mean 	0.47522522519166
scalar Network.dyn_peer[16] 	lookupHopsSig:mean 	4.1993243243243
scalar Network.dyn_peer[17] 	lookupTimeSig:mean 	0.45319865319865
scalar Network.dyn_peer[17] 	lookupStabilitySig:mean 	0.48947811447811
scalar Network.dyn_peer[17] 	lookupHopsSig:mean 	4.0841750841751
scalar Network.dyn_peer[18] 	lookupTimeSig:mean 	0.49021739130435
scalar Network.dyn_peer[18] 	lookupStabilitySig:mean 	0.4375
scalar Network.dyn_peer[18] 	lookupHopsSig:mean 	4.5
scalar Network.dyn_peer[19] 	lookupTimeSig:mean 	0.48566552901024
scalar Network.dyn_peer[19] 	lookupStabilitySig:mean 	0.45733788395904
scalar Network.dyn_peer[19] 	lookupHopsSig:mean 	4.3412969283276
scalar Network.dyn_peer[20] 	lookupTimeSig:mean 	0.47302631578947
scalar Network.dyn_peer[20] 	lookupStabilitySig:mean 	0.47203947368421
scalar Network.dyn_peer[20] 	lookupHopsSig:mean 	4.2236842105263
scalar Network.dyn_peer[21] 	lookupTimeSig:mean 	0.48652482269504
scalar Network.dyn_peer[21] 	lookupStabilitySig:mean 	0.44326241124184
scalar Network.dyn_peer[21] 	lookupHopsSig:mean 	4.4574468085106
scalar Network.dyn_peer[22] 	lookupTimeSig:mean 	0.49270833333333
scalar Network.dyn_peer[22] 	lookupStabilitySig:mean 	0.45100308633927
scalar Network.dyn_peer[22] 	lookupHopsSig:mean 	4.3958333333333
scalar Network.dyn_peer[23] 	lookupTimeSig:mean 	0.48647798742138
scalar Network.dyn_peer[23] 	lookupStabilitySig:mean 	0.44697763794248
scalar Network.dyn_peer[23] 	lookupHopsSig:mean 	4.4276729559748
scalar Network.dyn_peer[24] 	lookupTimeSig:mean 	0.48092105263158
scalar Network.dyn_peer[24] 	lookupStabilitySig:mean 	0.45572916663399
scalar Network.dyn_peer[24] 	lookupHopsSig:mean 	4.3552631578947
scalar Network.dyn_peer[25] 	lookupTimeSig:mean 	0.4624584717608
scalar Network.dyn_peer[25] 	lookupStabilitySig:mean 	0.47789774817783
scalar Network.dyn_peer[25] 	lookupHopsSig:mean 	4.1794019933555
scalar Network.dyn_peer[26] 	lookupTimeSig:mean 	0.46928327645051
scalar Network.dyn_peer[26] 	lookupStabilitySig:mean 	0.47572999597613
scalar Network.dyn_peer[26] 	lookupHopsSig:mean 	4.2013651877133
scalar Network.dyn_peer[27] 	lookupTimeSig:mean 	0.46634920634921
scalar Network.dyn_peer[27] 	lookupStabilitySig:mean 	0.46534391525719
scalar Network.dyn_peer[27] 	lookupHopsSig:mean 	4.2793650793651
scalar Network.dyn_peer[28] 	lookupTimeSig:mean 	0.45663430420712
scalar Network.dyn_peer[28] 	lookupStabilitySig:mean 	0.49635922330097
scalar Network.dyn_peer[28] 	lookupHopsSig:mean 	4.0291262135922
scalar Network.dyn_peer[29] 	lookupTimeSig:mean 	0.47788461538462
scalar Network.dyn_peer[29] 	lookupStabilitySig:mean 	0.46420940159796
scalar Network.dyn_peer[29] 	lookupHopsSig:mean 	4.2916666666667
scalar Network.dyn_peer[30] 	lookupTimeSig:mean 	0.45059880239521
scalar Network.dyn_peer[30] 	lookupStabilitySig:mean 	0.50528110445527
scalar Network.dyn_peer[30] 	lookupHopsSig:mean 	3.9580838323353
scalar Network.dyn_peer[31] 	lookupTimeSig:mean 	0.48248175182482
scalar Network.dyn_peer[31] 	lookupStabilitySig:mean 	0.45417680452666
scalar Network.dyn_peer[31] 	lookupHopsSig:mean 	4.3686131386861
