version 2
run Stability-norelink-122-20130525-23:22:11-22103
attr configname Stability-norelink
attr datetime 20130525-23:22:11
attr experiment Stability
attr inifile omnetpp.ini
attr iterationvars $0=1e-6
attr iterationvars2 "$0=1e-6, $repetition=2"
attr measurement $0=1e-6
attr network Network
attr processid 22103
attr repetition 2
attr replication #2
attr resultdir results
attr runnumber 122
attr seedset 122

scalar Network.dyn_peer[0] 	lookupTimeSig:mean 	0.4625
scalar Network.dyn_peer[0] 	lookupStabilitySig:mean 	0.484375
scalar Network.dyn_peer[0] 	lookupHopsSig:mean 	4.125
scalar Network.dyn_peer[1] 	lookupTimeSig:mean 	0.47152317880795
scalar Network.dyn_peer[1] 	lookupStabilitySig:mean 	0.47415378946342
scalar Network.dyn_peer[1] 	lookupHopsSig:mean 	4.2086092715232
scalar Network.dyn_peer[2] 	lookupTimeSig:mean 	0.44290220820189
scalar Network.dyn_peer[2] 	lookupStabilitySig:mean 	0.51971608823406
scalar Network.dyn_peer[2] 	lookupHopsSig:mean 	3.8485804416404
scalar Network.dyn_peer[3] 	lookupTimeSig:mean 	0.49208860759494
scalar Network.dyn_peer[3] 	lookupStabilitySig:mean 	0.44976265813354
scalar Network.dyn_peer[3] 	lookupHopsSig:mean 	4.4050632911392
scalar Network.dyn_peer[4] 	lookupTimeSig:mean 	0.50097719869707
scalar Network.dyn_peer[4] 	lookupStabilitySig:mean 	0.439332247557
scalar Network.dyn_peer[4] 	lookupHopsSig:mean 	4.485342019544
scalar Network.dyn_peer[5] 	lookupTimeSig:mean 	0.4671009771987
scalar Network.dyn_peer[5] 	lookupStabilitySig:mean 	0.48412052117264
scalar Network.dyn_peer[5] 	lookupHopsSig:mean 	4.1270358306189
scalar Network.dyn_peer[6] 	lookupTimeSig:mean 	0.46903225806452
scalar Network.dyn_peer[6] 	lookupStabilitySig:mean 	0.47459677416951
scalar Network.dyn_peer[6] 	lookupHopsSig:mean 	4.2064516129032
scalar Network.dyn_peer[7] 	lookupTimeSig:mean 	0.46085526315789
scalar Network.dyn_peer[7] 	lookupStabilitySig:mean 	0.4921875
scalar Network.dyn_peer[7] 	lookupHopsSig:mean 	4.0625
scalar Network.dyn_peer[8] 	lookupTimeSig:mean 	0.48014184397163
scalar Network.dyn_peer[8] 	lookupStabilitySig:mean 	0.46187943251843
scalar Network.dyn_peer[8] 	lookupHopsSig:mean 	4.3120567375887
scalar Network.dyn_peer[9] 	lookupTimeSig:mean 	0.47372013651877
scalar Network.dyn_peer[9] 	lookupStabilitySig:mean 	0.47250663623875
scalar Network.dyn_peer[9] 	lookupHopsSig:mean 	4.221843003413
scalar Network.dyn_peer[10] 	lookupTimeSig:mean 	0.49621993127148
scalar Network.dyn_peer[10] 	lookupStabilitySig:mean 	0.4350897288814
scalar Network.dyn_peer[10] 	lookupHopsSig:mean 	4.5223367697595
scalar Network.dyn_peer[11] 	lookupTimeSig:mean 	0.49575971731449
scalar Network.dyn_peer[11] 	lookupStabilitySig:mean 	0.43188064384797
scalar Network.dyn_peer[11] 	lookupHopsSig:mean 	4.547703180212
scalar Network.dyn_peer[12] 	lookupTimeSig:mean 	0.46525974025974
scalar Network.dyn_peer[12] 	lookupStabilitySig:mean 	0.48390151511926
scalar Network.dyn_peer[12] 	lookupHopsSig:mean 	4.1298701298701
scalar Network.dyn_peer[13] 	lookupTimeSig:mean 	0.47474048442907
scalar Network.dyn_peer[13] 	lookupStabilitySig:mean 	0.46083237215309
scalar Network.dyn_peer[13] 	lookupHopsSig:mean 	4.3148788927336
scalar Network.dyn_peer[14] 	lookupTimeSig:mean 	0.51610486891386
scalar Network.dyn_peer[14] 	lookupStabilitySig:mean 	0.4126092382473
scalar Network.dyn_peer[14] 	lookupHopsSig:mean 	4.7041198501873
scalar Network.dyn_peer[15] 	lookupTimeSig:mean 	0.44759036144578
scalar Network.dyn_peer[15] 	lookupStabilitySig:mean 	0.5076137884823
scalar Network.dyn_peer[15] 	lookupHopsSig:mean 	3.9397590361446
scalar Network.dyn_peer[16] 	lookupTimeSig:mean 	0.46917808219178
scalar Network.dyn_peer[16] 	lookupStabilitySig:mean 	0.4736015981395
scalar Network.dyn_peer[16] 	lookupHopsSig:mean 	4.2123287671233
scalar Network.dyn_peer[17] 	lookupTimeSig:mean 	0.44660194174757
scalar Network.dyn_peer[17] 	lookupStabilitySig:mean 	0.51002337284458
scalar Network.dyn_peer[17] 	lookupHopsSig:mean 	3.9223300970874
scalar Network.dyn_peer[18] 	lookupTimeSig:mean 	0.46535947712418
scalar Network.dyn_peer[18] 	lookupStabilitySig:mean 	0.48080065359477
scalar Network.dyn_peer[18] 	lookupHopsSig:mean 	4.1535947712418
scalar Network.dyn_peer[19] 	lookupTimeSig:mean 	0.52334494773519
scalar Network.dyn_peer[19] 	lookupStabilitySig:mean 	0.40248741772844
scalar Network.dyn_peer[19] 	lookupHopsSig:mean 	4.780487804878
scalar Network.dyn_peer[20] 	lookupTimeSig:mean 	0.47722772277228
scalar Network.dyn_peer[20] 	lookupStabilitySig:mean 	0.46021268784803
scalar Network.dyn_peer[20] 	lookupHopsSig:mean 	4.3201320132013
scalar Network.dyn_peer[21] 	lookupTimeSig:mean 	0.46677524429967
scalar Network.dyn_peer[21] 	lookupStabilitySig:mean 	0.4821751716665
scalar Network.dyn_peer[21] 	lookupHopsSig:mean 	4.1498371335505
scalar Network.dyn_peer[22] 	lookupTimeSig:mean 	0.45754716981132
scalar Network.dyn_peer[22] 	lookupStabilitySig:mean 	0.49017295597484
scalar Network.dyn_peer[22] 	lookupHopsSig:mean 	4.0786163522013
scalar Network.dyn_peer[23] 	lookupTimeSig:mean 	0.46433121019108
scalar Network.dyn_peer[23] 	lookupStabilitySig:mean 	0.49194975221043
scalar Network.dyn_peer[23] 	lookupHopsSig:mean 	4.0668789808917
scalar Network.dyn_peer[24] 	lookupTimeSig:mean 	0.4788961038961
scalar Network.dyn_peer[24] 	lookupStabilitySig:mean 	0.46230158727471
scalar Network.dyn_peer[24] 	lookupHopsSig:mean 	4.3051948051948
scalar Network.dyn_peer[25] 	lookupTimeSig:mean 	0.46488294314381
scalar Network.dyn_peer[25] 	lookupStabilitySig:mean 	0.47761055366152
scalar Network.dyn_peer[25] 	lookupHopsSig:mean 	4.1839464882943
scalar Network.dyn_peer[26] 	lookupTimeSig:mean 	0.48106312292359
scalar Network.dyn_peer[26] 	lookupStabilitySig:mean 	0.46345514950166
scalar Network.dyn_peer[26] 	lookupHopsSig:mean 	4.2923588039867
scalar Network.dyn_peer[27] 	lookupTimeSig:mean 	0.48952702702703
scalar Network.dyn_peer[27] 	lookupStabilitySig:mean 	0.45230855850654
scalar Network.dyn_peer[27] 	lookupHopsSig:mean 	4.3851351351351
scalar Network.dyn_peer[28] 	lookupTimeSig:mean 	0.45646258503401
scalar Network.dyn_peer[28] 	lookupStabilitySig:mean 	0.4906462585034
scalar Network.dyn_peer[28] 	lookupHopsSig:mean 	4.078231292517
scalar Network.dyn_peer[29] 	lookupTimeSig:mean 	0.46900958466454
scalar Network.dyn_peer[29] 	lookupStabilitySig:mean 	0.47825701091998
scalar Network.dyn_peer[29] 	lookupHopsSig:mean 	4.1757188498403
scalar Network.dyn_peer[30] 	lookupTimeSig:mean 	0.46865203761755
scalar Network.dyn_peer[30] 	lookupStabilitySig:mean 	0.47348484826686
scalar Network.dyn_peer[30] 	lookupHopsSig:mean 	4.2194357366771
scalar Network.dyn_peer[31] 	lookupTimeSig:mean 	0.47029702970297
scalar Network.dyn_peer[31] 	lookupStabilitySig:mean 	0.48047304728834
scalar Network.dyn_peer[31] 	lookupHopsSig:mean 	4.1584158415842
