version 2
run Stability-norelink-113-20130525-23:21:34-22103
attr configname Stability-norelink
attr datetime 20130525-23:21:34
attr experiment Stability
attr inifile omnetpp.ini
attr iterationvars $0=1e-5
attr iterationvars2 "$0=1e-5, $repetition=3"
attr measurement $0=1e-5
attr network Network
attr processid 22103
attr repetition 3
attr replication #3
attr resultdir results
attr runnumber 113
attr seedset 113

scalar Network.dyn_peer[0] 	lookupTimeSig:mean 	0.47009646302251
scalar Network.dyn_peer[0] 	lookupStabilitySig:mean 	0.48030546623794
scalar Network.dyn_peer[0] 	lookupHopsSig:mean 	4.1575562700965
scalar Network.dyn_peer[1] 	lookupTimeSig:mean 	0.4517571884984
scalar Network.dyn_peer[1] 	lookupStabilitySig:mean 	0.50408235711221
scalar Network.dyn_peer[1] 	lookupHopsSig:mean 	3.9680511182109
scalar Network.dyn_peer[2] 	lookupTimeSig:mean 	0.4403125
scalar Network.dyn_peer[2] 	lookupStabilitySig:mean 	0.50590277765878
scalar Network.dyn_peer[2] 	lookupHopsSig:mean 	3.959375
scalar Network.dyn_peer[3] 	lookupTimeSig:mean 	0.47119205298013
scalar Network.dyn_peer[3] 	lookupStabilitySig:mean 	0.47948859454385
scalar Network.dyn_peer[3] 	lookupHopsSig:mean 	4.1655629139073
scalar Network.dyn_peer[4] 	lookupTimeSig:mean 	0.46507936507937
scalar Network.dyn_peer[4] 	lookupStabilitySig:mean 	0.48531746031746
scalar Network.dyn_peer[4] 	lookupHopsSig:mean 	4.1174603174603
scalar Network.dyn_peer[5] 	lookupTimeSig:mean 	0.47687296416938
scalar Network.dyn_peer[5] 	lookupStabilitySig:mean 	0.45969055374593
scalar Network.dyn_peer[5] 	lookupHopsSig:mean 	4.3224755700326
scalar Network.dyn_peer[6] 	lookupTimeSig:mean 	0.50177304964539
scalar Network.dyn_peer[6] 	lookupStabilitySig:mean 	0.43582545292187
scalar Network.dyn_peer[6] 	lookupHopsSig:mean 	4.5177304964539
scalar Network.dyn_peer[7] 	lookupTimeSig:mean 	0.4787456445993
scalar Network.dyn_peer[7] 	lookupStabilitySig:mean 	0.47004452186802
scalar Network.dyn_peer[7] 	lookupHopsSig:mean 	4.2404181184669
scalar Network.dyn_peer[8] 	lookupTimeSig:mean 	0.45705128205128
scalar Network.dyn_peer[8] 	lookupStabilitySig:mean 	0.48922720790291
scalar Network.dyn_peer[8] 	lookupHopsSig:mean 	4.0929487179487
scalar Network.dyn_peer[9] 	lookupTimeSig:mean 	0.5017667844523
scalar Network.dyn_peer[9] 	lookupStabilitySig:mean 	0.43472712995096
scalar Network.dyn_peer[9] 	lookupHopsSig:mean 	4.5229681978799
scalar Network.dyn_peer[10] 	lookupTimeSig:mean 	0.46771929824561
scalar Network.dyn_peer[10] 	lookupStabilitySig:mean 	0.47383040932187
scalar Network.dyn_peer[10] 	lookupHopsSig:mean 	4.2105263157895
scalar Network.dyn_peer[11] 	lookupTimeSig:mean 	0.47307692307692
scalar Network.dyn_peer[11] 	lookupStabilitySig:mean 	0.46768162389978
scalar Network.dyn_peer[11] 	lookupHopsSig:mean 	4.2596153846154
scalar Network.dyn_peer[12] 	lookupTimeSig:mean 	0.5127147766323
scalar Network.dyn_peer[12] 	lookupStabilitySig:mean 	0.41580756013746
scalar Network.dyn_peer[12] 	lookupHopsSig:mean 	4.6735395189003
scalar Network.dyn_peer[13] 	lookupTimeSig:mean 	0.47391304347826
scalar Network.dyn_peer[13] 	lookupStabilitySig:mean 	0.46658615120079
scalar Network.dyn_peer[13] 	lookupHopsSig:mean 	4.2753623188406
scalar Network.dyn_peer[14] 	lookupTimeSig:mean 	0.45111821086262
scalar Network.dyn_peer[14] 	lookupStabilitySig:mean 	0.49747071350916
scalar Network.dyn_peer[14] 	lookupHopsSig:mean 	4.0223642172524
scalar Network.dyn_peer[15] 	lookupTimeSig:mean 	0.48413793103448
scalar Network.dyn_peer[15] 	lookupStabilitySig:mean 	0.45258620689655
scalar Network.dyn_peer[15] 	lookupHopsSig:mean 	4.3793103448276
scalar Network.dyn_peer[16] 	lookupTimeSig:mean 	0.46504854368932
scalar Network.dyn_peer[16] 	lookupStabilitySig:mean 	0.48058252427184
scalar Network.dyn_peer[16] 	lookupHopsSig:mean 	4.1553398058252
scalar Network.dyn_peer[17] 	lookupTimeSig:mean 	0.45302013422819
scalar Network.dyn_peer[17] 	lookupStabilitySig:mean 	0.49683072332968
scalar Network.dyn_peer[17] 	lookupHopsSig:mean 	4.0268456375839
scalar Network.dyn_peer[18] 	lookupTimeSig:mean 	0.46646525679758
scalar Network.dyn_peer[18] 	lookupStabilitySig:mean 	0.48241859678956
scalar Network.dyn_peer[18] 	lookupHopsSig:mean 	4.1450151057402
scalar Network.dyn_peer[19] 	lookupTimeSig:mean 	0.43472668810289
scalar Network.dyn_peer[19] 	lookupStabilitySig:mean 	0.52349053220254
scalar Network.dyn_peer[19] 	lookupHopsSig:mean 	3.8167202572347
scalar Network.dyn_peer[20] 	lookupTimeSig:mean 	0.47980769230769
scalar Network.dyn_peer[20] 	lookupStabilitySig:mean 	0.46754807692308
scalar Network.dyn_peer[20] 	lookupHopsSig:mean 	4.2596153846154
scalar Network.dyn_peer[21] 	lookupTimeSig:mean 	0.48487972508591
scalar Network.dyn_peer[21] 	lookupStabilitySig:mean 	0.45146048109966
scalar Network.dyn_peer[21] 	lookupHopsSig:mean 	4.3883161512027
scalar Network.dyn_peer[22] 	lookupTimeSig:mean 	0.48461538461538
scalar Network.dyn_peer[22] 	lookupStabilitySig:mean 	0.45726495725917
scalar Network.dyn_peer[22] 	lookupHopsSig:mean 	4.3426573426573
scalar Network.dyn_peer[23] 	lookupTimeSig:mean 	0.48803986710963
scalar Network.dyn_peer[23] 	lookupStabilitySig:mean 	0.45131967508813
scalar Network.dyn_peer[23] 	lookupHopsSig:mean 	4.3920265780731
scalar Network.dyn_peer[24] 	lookupTimeSig:mean 	0.45602605863192
scalar Network.dyn_peer[24] 	lookupStabilitySig:mean 	0.49552117263844
scalar Network.dyn_peer[24] 	lookupHopsSig:mean 	4.0358306188925
scalar Network.dyn_peer[25] 	lookupTimeSig:mean 	0.48608058608059
scalar Network.dyn_peer[25] 	lookupStabilitySig:mean 	0.45080382581596
scalar Network.dyn_peer[25] 	lookupHopsSig:mean 	4.3992673992674
scalar Network.dyn_peer[26] 	lookupTimeSig:mean 	0.46185897435897
scalar Network.dyn_peer[26] 	lookupStabilitySig:mean 	0.48566595445841
scalar Network.dyn_peer[26] 	lookupHopsSig:mean 	4.1217948717949
scalar Network.dyn_peer[27] 	lookupTimeSig:mean 	0.45123456790123
scalar Network.dyn_peer[27] 	lookupStabilitySig:mean 	0.4990997939934
scalar Network.dyn_peer[27] 	lookupHopsSig:mean 	4.0123456790123
scalar Network.dyn_peer[28] 	lookupTimeSig:mean 	0.47475083056478
scalar Network.dyn_peer[28] 	lookupStabilitySig:mean 	0.4695921003373
scalar Network.dyn_peer[28] 	lookupHopsSig:mean 	4.2458471760797
scalar Network.dyn_peer[29] 	lookupTimeSig:mean 	0.47233333333333
scalar Network.dyn_peer[29] 	lookupStabilitySig:mean 	0.47109259232879
scalar Network.dyn_peer[29] 	lookupHopsSig:mean 	4.24
scalar Network.dyn_peer[30] 	lookupTimeSig:mean 	0.44309210526316
scalar Network.dyn_peer[30] 	lookupStabilitySig:mean 	0.5075383771603
scalar Network.dyn_peer[30] 	lookupHopsSig:mean 	3.9407894736842
scalar Network.dyn_peer[31] 	lookupTimeSig:mean 	0.49125874125874
scalar Network.dyn_peer[31] 	lookupStabilitySig:mean 	0.44012237762238
scalar Network.dyn_peer[31] 	lookupHopsSig:mean 	4.479020979021
