version 2
run Stability-norelink-125-20130525-23:22:23-22103
attr configname Stability-norelink
attr datetime 20130525-23:22:23
attr experiment Stability
attr inifile omnetpp.ini
attr iterationvars $0=1e-6
attr iterationvars2 "$0=1e-6, $repetition=5"
attr measurement $0=1e-6
attr network Network
attr processid 22103
attr repetition 5
attr replication #5
attr resultdir results
attr runnumber 125
attr seedset 125

scalar Network.dyn_peer[0] 	lookupTimeSig:mean 	0.47558528428094
scalar Network.dyn_peer[0] 	lookupStabilitySig:mean 	0.4646506874657
scalar Network.dyn_peer[0] 	lookupHopsSig:mean 	4.2842809364548
scalar Network.dyn_peer[1] 	lookupTimeSig:mean 	0.46191950464396
scalar Network.dyn_peer[1] 	lookupStabilitySig:mean 	0.48654110752761
scalar Network.dyn_peer[1] 	lookupHopsSig:mean 	4.1114551083591
scalar Network.dyn_peer[2] 	lookupTimeSig:mean 	0.45974025974026
scalar Network.dyn_peer[2] 	lookupStabilitySig:mean 	0.48656204904055
scalar Network.dyn_peer[2] 	lookupHopsSig:mean 	4.1103896103896
scalar Network.dyn_peer[3] 	lookupTimeSig:mean 	0.48486842105263
scalar Network.dyn_peer[3] 	lookupStabilitySig:mean 	0.45481542390036
scalar Network.dyn_peer[3] 	lookupHopsSig:mean 	4.3651315789474
scalar Network.dyn_peer[4] 	lookupTimeSig:mean 	0.48006756756757
scalar Network.dyn_peer[4] 	lookupStabilitySig:mean 	0.46063250746276
scalar Network.dyn_peer[4] 	lookupHopsSig:mean 	4.3175675675676
scalar Network.dyn_peer[5] 	lookupTimeSig:mean 	0.47208480565371
scalar Network.dyn_peer[5] 	lookupStabilitySig:mean 	0.47526501766784
scalar Network.dyn_peer[5] 	lookupHopsSig:mean 	4.1978798586572
scalar Network.dyn_peer[6] 	lookupTimeSig:mean 	0.47241379310345
scalar Network.dyn_peer[6] 	lookupStabilitySig:mean 	0.47452978056426
scalar Network.dyn_peer[6] 	lookupHopsSig:mean 	4.2037617554859
scalar Network.dyn_peer[7] 	lookupTimeSig:mean 	0.45656565656566
scalar Network.dyn_peer[7] 	lookupStabilitySig:mean 	0.49789562289562
scalar Network.dyn_peer[7] 	lookupHopsSig:mean 	4.016835016835
scalar Network.dyn_peer[8] 	lookupTimeSig:mean 	0.48045602605863
scalar Network.dyn_peer[8] 	lookupStabilitySig:mean 	0.45905718420926
scalar Network.dyn_peer[8] 	lookupHopsSig:mean 	4.328990228013
scalar Network.dyn_peer[9] 	lookupTimeSig:mean 	0.48
scalar Network.dyn_peer[9] 	lookupStabilitySig:mean 	0.46238229739464
scalar Network.dyn_peer[9] 	lookupHopsSig:mean 	4.3050847457627
scalar Network.dyn_peer[10] 	lookupTimeSig:mean 	0.47213114754098
scalar Network.dyn_peer[10] 	lookupStabilitySig:mean 	0.4738160290679
scalar Network.dyn_peer[10] 	lookupHopsSig:mean 	4.2131147540984
scalar Network.dyn_peer[11] 	lookupTimeSig:mean 	0.50153256704981
scalar Network.dyn_peer[11] 	lookupStabilitySig:mean 	0.43231162189067
scalar Network.dyn_peer[11] 	lookupHopsSig:mean 	4.544061302682
scalar Network.dyn_peer[12] 	lookupTimeSig:mean 	0.465
scalar Network.dyn_peer[12] 	lookupStabilitySig:mean 	0.48657407402992
scalar Network.dyn_peer[12] 	lookupHopsSig:mean 	4.11
scalar Network.dyn_peer[13] 	lookupTimeSig:mean 	0.47667844522968
scalar Network.dyn_peer[13] 	lookupStabilitySig:mean 	0.46598939929329
scalar Network.dyn_peer[13] 	lookupHopsSig:mean 	4.2720848056537
scalar Network.dyn_peer[14] 	lookupTimeSig:mean 	0.46918238993711
scalar Network.dyn_peer[14] 	lookupStabilitySig:mean 	0.47851153027337
scalar Network.dyn_peer[14] 	lookupHopsSig:mean 	4.1761006289308
scalar Network.dyn_peer[15] 	lookupTimeSig:mean 	0.503663003663
scalar Network.dyn_peer[15] 	lookupStabilitySig:mean 	0.42780830277191
scalar Network.dyn_peer[15] 	lookupHopsSig:mean 	4.5787545787546
scalar Network.dyn_peer[16] 	lookupTimeSig:mean 	0.46068965517241
scalar Network.dyn_peer[16] 	lookupStabilitySig:mean 	0.47945402295425
scalar Network.dyn_peer[16] 	lookupHopsSig:mean 	4.1655172413793
scalar Network.dyn_peer[17] 	lookupTimeSig:mean 	0.46930693069307
scalar Network.dyn_peer[17] 	lookupStabilitySig:mean 	0.47937293719537
scalar Network.dyn_peer[17] 	lookupHopsSig:mean 	4.1683168316832
scalar Network.dyn_peer[18] 	lookupTimeSig:mean 	0.46012658227848
scalar Network.dyn_peer[18] 	lookupStabilitySig:mean 	0.49081399423789
scalar Network.dyn_peer[18] 	lookupHopsSig:mean 	4.0791139240506
scalar Network.dyn_peer[19] 	lookupTimeSig:mean 	0.48972602739726
scalar Network.dyn_peer[19] 	lookupStabilitySig:mean 	0.44687024350852
scalar Network.dyn_peer[19] 	lookupHopsSig:mean 	4.4280821917808
scalar Network.dyn_peer[20] 	lookupTimeSig:mean 	0.44583333333333
scalar Network.dyn_peer[20] 	lookupStabilitySig:mean 	0.50934829059033
scalar Network.dyn_peer[20] 	lookupHopsSig:mean 	3.9262820512821
scalar Network.dyn_peer[21] 	lookupTimeSig:mean 	0.49301470588235
scalar Network.dyn_peer[21] 	lookupStabilitySig:mean 	0.44893790839021
scalar Network.dyn_peer[21] 	lookupHopsSig:mean 	4.4154411764706
scalar Network.dyn_peer[22] 	lookupTimeSig:mean 	0.48350515463918
scalar Network.dyn_peer[22] 	lookupStabilitySig:mean 	0.45131729660985
scalar Network.dyn_peer[22] 	lookupHopsSig:mean 	4.3917525773196
scalar Network.dyn_peer[23] 	lookupTimeSig:mean 	0.47827586206897
scalar Network.dyn_peer[23] 	lookupStabilitySig:mean 	0.46422413793103
scalar Network.dyn_peer[23] 	lookupHopsSig:mean 	4.2862068965517
scalar Network.dyn_peer[24] 	lookupTimeSig:mean 	0.47388316151203
scalar Network.dyn_peer[24] 	lookupStabilitySig:mean 	0.4625811377649
scalar Network.dyn_peer[24] 	lookupHopsSig:mean 	4.3058419243986
scalar Network.dyn_peer[25] 	lookupTimeSig:mean 	0.45880398671096
scalar Network.dyn_peer[25] 	lookupStabilitySig:mean 	0.49197120699673
scalar Network.dyn_peer[25] 	lookupHopsSig:mean 	4.0664451827243
scalar Network.dyn_peer[26] 	lookupTimeSig:mean 	0.47676767676768
scalar Network.dyn_peer[26] 	lookupStabilitySig:mean 	0.46632996632997
scalar Network.dyn_peer[26] 	lookupHopsSig:mean 	4.2693602693603
scalar Network.dyn_peer[27] 	lookupTimeSig:mean 	0.49488817891374
scalar Network.dyn_peer[27] 	lookupStabilitySig:mean 	0.45336350727196
scalar Network.dyn_peer[27] 	lookupHopsSig:mean 	4.3738019169329
scalar Network.dyn_peer[28] 	lookupTimeSig:mean 	0.49006622516556
scalar Network.dyn_peer[28] 	lookupStabilitySig:mean 	0.44610007349032
scalar Network.dyn_peer[28] 	lookupHopsSig:mean 	4.4337748344371
scalar Network.dyn_peer[29] 	lookupTimeSig:mean 	0.49421221864952
scalar Network.dyn_peer[29] 	lookupStabilitySig:mean 	0.44207752766717
scalar Network.dyn_peer[29] 	lookupHopsSig:mean 	4.4662379421222
scalar Network.dyn_peer[30] 	lookupTimeSig:mean 	0.47796052631579
scalar Network.dyn_peer[30] 	lookupStabilitySig:mean 	0.46591739743752
scalar Network.dyn_peer[30] 	lookupHopsSig:mean 	4.2796052631579
scalar Network.dyn_peer[31] 	lookupTimeSig:mean 	0.465625
scalar Network.dyn_peer[31] 	lookupStabilitySig:mean 	0.4765625
scalar Network.dyn_peer[31] 	lookupHopsSig:mean 	4.1875
