version 2
run Stability-norelink-46-20130525-23:17:04-22103
attr configname Stability-norelink
attr datetime 20130525-23:17:04
attr experiment Stability
attr inifile omnetpp.ini
attr iterationvars $0=1e2
attr iterationvars2 "$0=1e2, $repetition=6"
attr measurement $0=1e2
attr network Network
attr processid 22103
attr repetition 6
attr replication #6
attr resultdir results
attr runnumber 46
attr seedset 46

scalar Network.dyn_peer[0] 	lookupTimeSig:mean 	0.32540716612378
scalar Network.dyn_peer[0] 	lookupStabilitySig:mean 	0.67114549402014
scalar Network.dyn_peer[0] 	lookupHopsSig:mean 	2.6319218241042
scalar Network.dyn_peer[1] 	lookupTimeSig:mean 	0.36104868913858
scalar Network.dyn_peer[1] 	lookupStabilitySig:mean 	0.61808156470458
scalar Network.dyn_peer[1] 	lookupHopsSig:mean 	3.0561797752809
scalar Network.dyn_peer[2] 	lookupTimeSig:mean 	0.33380281690141
scalar Network.dyn_peer[2] 	lookupStabilitySig:mean 	0.65434272298721
scalar Network.dyn_peer[2] 	lookupHopsSig:mean 	2.7676056338028
scalar Network.dyn_peer[3] 	lookupTimeSig:mean 	0.35214285714286
scalar Network.dyn_peer[3] 	lookupStabilitySig:mean 	0.62991071428571
scalar Network.dyn_peer[3] 	lookupHopsSig:mean 	2.9607142857143
scalar Network.dyn_peer[4] 	lookupTimeSig:mean 	0.3262962962963
scalar Network.dyn_peer[4] 	lookupStabilitySig:mean 	0.65478395060809
scalar Network.dyn_peer[4] 	lookupHopsSig:mean 	2.762962962963
scalar Network.dyn_peer[5] 	lookupTimeSig:mean 	0.34470989761092
scalar Network.dyn_peer[5] 	lookupStabilitySig:mean 	0.63941031473183
scalar Network.dyn_peer[5] 	lookupHopsSig:mean 	2.8873720136519
scalar Network.dyn_peer[6] 	lookupTimeSig:mean 	0.35740740740741
scalar Network.dyn_peer[6] 	lookupStabilitySig:mean 	0.62685185185185
scalar Network.dyn_peer[6] 	lookupHopsSig:mean 	2.9851851851852
scalar Network.dyn_peer[7] 	lookupTimeSig:mean 	0.33116438356164
scalar Network.dyn_peer[7] 	lookupStabilitySig:mean 	0.66138698630137
scalar Network.dyn_peer[7] 	lookupHopsSig:mean 	2.708904109589
scalar Network.dyn_peer[8] 	lookupTimeSig:mean 	0.31950354609929
scalar Network.dyn_peer[8] 	lookupStabilitySig:mean 	0.67597517730496
scalar Network.dyn_peer[8] 	lookupHopsSig:mean 	2.5921985815603
scalar Network.dyn_peer[9] 	lookupTimeSig:mean 	0.3489932885906
scalar Network.dyn_peer[9] 	lookupStabilitySig:mean 	0.63860924679461
scalar Network.dyn_peer[9] 	lookupHopsSig:mean 	2.8926174496644
scalar Network.dyn_peer[10] 	lookupTimeSig:mean 	0.33357142857143
scalar Network.dyn_peer[10] 	lookupStabilitySig:mean 	0.659375
scalar Network.dyn_peer[10] 	lookupHopsSig:mean 	2.725
scalar Network.dyn_peer[11] 	lookupTimeSig:mean 	0.31495016611296
scalar Network.dyn_peer[11] 	lookupStabilitySig:mean 	0.68092469544308
scalar Network.dyn_peer[11] 	lookupHopsSig:mean 	2.5548172757475
scalar Network.dyn_peer[12] 	lookupTimeSig:mean 	0.33420074349442
scalar Network.dyn_peer[12] 	lookupStabilitySig:mean 	0.65417182977315
scalar Network.dyn_peer[12] 	lookupHopsSig:mean 	2.7695167286245
scalar Network.dyn_peer[13] 	lookupTimeSig:mean 	0.35287769784173
scalar Network.dyn_peer[13] 	lookupStabilitySig:mean 	0.63069544357362
scalar Network.dyn_peer[13] 	lookupHopsSig:mean 	2.9568345323741
scalar Network.dyn_peer[14] 	lookupTimeSig:mean 	0.33389261744966
scalar Network.dyn_peer[14] 	lookupStabilitySig:mean 	0.65687919463087
scalar Network.dyn_peer[14] 	lookupHopsSig:mean 	2.744966442953
scalar Network.dyn_peer[15] 	lookupTimeSig:mean 	0.36289752650177
scalar Network.dyn_peer[15] 	lookupStabilitySig:mean 	0.61925795053004
scalar Network.dyn_peer[15] 	lookupHopsSig:mean 	3.0459363957597
scalar Network.dyn_peer[16] 	lookupTimeSig:mean 	0.32975778546713
scalar Network.dyn_peer[16] 	lookupStabilitySig:mean 	0.66335063430265
scalar Network.dyn_peer[16] 	lookupHopsSig:mean 	2.6955017301038
scalar Network.dyn_peer[17] 	lookupTimeSig:mean 	0.3145390070922
scalar Network.dyn_peer[17] 	lookupStabilitySig:mean 	0.68503743103633
scalar Network.dyn_peer[17] 	lookupHopsSig:mean 	2.5212765957447
scalar Network.dyn_peer[18] 	lookupTimeSig:mean 	0.34347826086957
scalar Network.dyn_peer[18] 	lookupStabilitySig:mean 	0.64135466988428
scalar Network.dyn_peer[18] 	lookupHopsSig:mean 	2.8695652173913
scalar Network.dyn_peer[19] 	lookupTimeSig:mean 	0.33718411552347
scalar Network.dyn_peer[19] 	lookupStabilitySig:mean 	0.64981949458484
scalar Network.dyn_peer[19] 	lookupHopsSig:mean 	2.8014440433213
scalar Network.dyn_peer[20] 	lookupTimeSig:mean 	0.36
scalar Network.dyn_peer[20] 	lookupStabilitySig:mean 	0.62773069678727
scalar Network.dyn_peer[20] 	lookupHopsSig:mean 	2.9796610169492
scalar Network.dyn_peer[21] 	lookupTimeSig:mean 	0.36346153846154
scalar Network.dyn_peer[21] 	lookupStabilitySig:mean 	0.62120726495408
scalar Network.dyn_peer[21] 	lookupHopsSig:mean 	3.0307692307692
scalar Network.dyn_peer[22] 	lookupTimeSig:mean 	0.33970588235294
scalar Network.dyn_peer[22] 	lookupStabilitySig:mean 	0.6479779410669
scalar Network.dyn_peer[22] 	lookupHopsSig:mean 	2.8198529411765
scalar Network.dyn_peer[23] 	lookupTimeSig:mean 	0.3362676056338
scalar Network.dyn_peer[23] 	lookupStabilitySig:mean 	0.65316901408451
scalar Network.dyn_peer[23] 	lookupHopsSig:mean 	2.7746478873239
scalar Network.dyn_peer[24] 	lookupTimeSig:mean 	0.33481228668942
scalar Network.dyn_peer[24] 	lookupStabilitySig:mean 	0.65443686006826
scalar Network.dyn_peer[24] 	lookupHopsSig:mean 	2.7645051194539
scalar Network.dyn_peer[25] 	lookupTimeSig:mean 	0.31612903225806
scalar Network.dyn_peer[25] 	lookupStabilitySig:mean 	0.67955993617948
scalar Network.dyn_peer[25] 	lookupHopsSig:mean 	2.5663082437276
scalar Network.dyn_peer[26] 	lookupTimeSig:mean 	0.33357664233577
scalar Network.dyn_peer[26] 	lookupStabilitySig:mean 	0.65602189781022
scalar Network.dyn_peer[26] 	lookupHopsSig:mean 	2.7518248175182
scalar Network.dyn_peer[27] 	lookupTimeSig:mean 	0.34015151515152
scalar Network.dyn_peer[27] 	lookupStabilitySig:mean 	0.65072601006338
scalar Network.dyn_peer[27] 	lookupHopsSig:mean 	2.7954545454545
scalar Network.dyn_peer[28] 	lookupTimeSig:mean 	0.34067164179104
scalar Network.dyn_peer[28] 	lookupStabilitySig:mean 	0.64987562185348
scalar Network.dyn_peer[28] 	lookupHopsSig:mean 	2.8022388059701
scalar Network.dyn_peer[29] 	lookupTimeSig:mean 	0.36847826086957
scalar Network.dyn_peer[29] 	lookupStabilitySig:mean 	0.611865941975
scalar Network.dyn_peer[29] 	lookupHopsSig:mean 	3.1086956521739
scalar Network.dyn_peer[30] 	lookupTimeSig:mean 	0.3336917562724
scalar Network.dyn_peer[30] 	lookupStabilitySig:mean 	0.65342493026808
scalar Network.dyn_peer[30] 	lookupHopsSig:mean 	2.7741935483871
scalar Network.dyn_peer[31] 	lookupTimeSig:mean 	0.32734082397004
scalar Network.dyn_peer[31] 	lookupStabilitySig:mean 	0.66026841444469
scalar Network.dyn_peer[31] 	lookupHopsSig:mean 	2.7191011235955
