version 2
run Stability-norelink-72-20130525-23:18:48-22103
attr configname Stability-norelink
attr datetime 20130525-23:18:48
attr experiment Stability
attr inifile omnetpp.ini
attr iterationvars $0=1e-1
attr iterationvars2 "$0=1e-1, $repetition=2"
attr measurement $0=1e-1
attr network Network
attr processid 22103
attr repetition 2
attr replication #2
attr resultdir results
attr runnumber 72
attr seedset 72

scalar Network.dyn_peer[0] 	lookupTimeSig:mean 	0.43333333333333
scalar Network.dyn_peer[0] 	lookupStabilitySig:mean 	0.52046555893443
scalar Network.dyn_peer[0] 	lookupHopsSig:mean 	3.8380062305296
scalar Network.dyn_peer[1] 	lookupTimeSig:mean 	0.49450171821306
scalar Network.dyn_peer[1] 	lookupStabilitySig:mean 	0.44592401646462
scalar Network.dyn_peer[1] 	lookupHopsSig:mean 	4.4432989690722
scalar Network.dyn_peer[2] 	lookupTimeSig:mean 	0.46350877192982
scalar Network.dyn_peer[2] 	lookupStabilitySig:mean 	0.4803118908353
scalar Network.dyn_peer[2] 	lookupHopsSig:mean 	4.1578947368421
scalar Network.dyn_peer[3] 	lookupTimeSig:mean 	0.44086378737542
scalar Network.dyn_peer[3] 	lookupStabilitySig:mean 	0.51568844582749
scalar Network.dyn_peer[3] 	lookupHopsSig:mean 	3.8770764119601
scalar Network.dyn_peer[4] 	lookupTimeSig:mean 	0.46969696969697
scalar Network.dyn_peer[4] 	lookupStabilitySig:mean 	0.47474747474747
scalar Network.dyn_peer[4] 	lookupHopsSig:mean 	4.2020202020202
scalar Network.dyn_peer[5] 	lookupTimeSig:mean 	0.48697183098592
scalar Network.dyn_peer[5] 	lookupStabilitySig:mean 	0.45202464788732
scalar Network.dyn_peer[5] 	lookupHopsSig:mean 	4.3838028169014
scalar Network.dyn_peer[6] 	lookupTimeSig:mean 	0.4962962962963
scalar Network.dyn_peer[6] 	lookupStabilitySig:mean 	0.43181818181818
scalar Network.dyn_peer[6] 	lookupHopsSig:mean 	4.5488215488215
scalar Network.dyn_peer[7] 	lookupTimeSig:mean 	0.46254071661238
scalar Network.dyn_peer[7] 	lookupStabilitySig:mean 	0.48167752442997
scalar Network.dyn_peer[7] 	lookupHopsSig:mean 	4.1465798045603
scalar Network.dyn_peer[8] 	lookupTimeSig:mean 	0.49614035087719
scalar Network.dyn_peer[8] 	lookupStabilitySig:mean 	0.43343079921446
scalar Network.dyn_peer[8] 	lookupHopsSig:mean 	4.5333333333333
scalar Network.dyn_peer[9] 	lookupTimeSig:mean 	0.45239616613419
scalar Network.dyn_peer[9] 	lookupStabilitySig:mean 	0.48801916932907
scalar Network.dyn_peer[9] 	lookupHopsSig:mean 	4.0958466453674
scalar Network.dyn_peer[10] 	lookupTimeSig:mean 	0.45808580858086
scalar Network.dyn_peer[10] 	lookupStabilitySig:mean 	0.48391089108911
scalar Network.dyn_peer[10] 	lookupHopsSig:mean 	4.1287128712871
scalar Network.dyn_peer[11] 	lookupTimeSig:mean 	0.48368055555556
scalar Network.dyn_peer[11] 	lookupStabilitySig:mean 	0.45664544752799
scalar Network.dyn_peer[11] 	lookupHopsSig:mean 	4.3472222222222
scalar Network.dyn_peer[12] 	lookupTimeSig:mean 	0.42884615384615
scalar Network.dyn_peer[12] 	lookupStabilitySig:mean 	0.52684294871795
scalar Network.dyn_peer[12] 	lookupHopsSig:mean 	3.7852564102564
scalar Network.dyn_peer[13] 	lookupTimeSig:mean 	0.46818181818182
scalar Network.dyn_peer[13] 	lookupStabilitySig:mean 	0.48024891771666
scalar Network.dyn_peer[13] 	lookupHopsSig:mean 	4.1590909090909
scalar Network.dyn_peer[14] 	lookupTimeSig:mean 	0.47589928057554
scalar Network.dyn_peer[14] 	lookupStabilitySig:mean 	0.4686750599163
scalar Network.dyn_peer[14] 	lookupHopsSig:mean 	4.2517985611511
scalar Network.dyn_peer[15] 	lookupTimeSig:mean 	0.4904593639576
scalar Network.dyn_peer[15] 	lookupStabilitySig:mean 	0.44100903016729
scalar Network.dyn_peer[15] 	lookupHopsSig:mean 	4.4805653710247
scalar Network.dyn_peer[16] 	lookupTimeSig:mean 	0.46577181208054
scalar Network.dyn_peer[16] 	lookupStabilitySig:mean 	0.47692953020134
scalar Network.dyn_peer[16] 	lookupHopsSig:mean 	4.1845637583893
scalar Network.dyn_peer[17] 	lookupTimeSig:mean 	0.50952380952381
scalar Network.dyn_peer[17] 	lookupStabilitySig:mean 	0.4186507936144
scalar Network.dyn_peer[17] 	lookupHopsSig:mean 	4.6520146520147
scalar Network.dyn_peer[18] 	lookupTimeSig:mean 	0.46348684210526
scalar Network.dyn_peer[18] 	lookupStabilitySig:mean 	0.48003472218682
scalar Network.dyn_peer[18] 	lookupHopsSig:mean 	4.1644736842105
scalar Network.dyn_peer[19] 	lookupTimeSig:mean 	0.4555910543131
scalar Network.dyn_peer[19] 	lookupStabilitySig:mean 	0.4893947461733
scalar Network.dyn_peer[19] 	lookupHopsSig:mean 	4.0862619808307
scalar Network.dyn_peer[20] 	lookupTimeSig:mean 	0.4756183745583
scalar Network.dyn_peer[20] 	lookupStabilitySig:mean 	0.46157243816254
scalar Network.dyn_peer[20] 	lookupHopsSig:mean 	4.3074204946996
scalar Network.dyn_peer[21] 	lookupTimeSig:mean 	0.50681818181818
scalar Network.dyn_peer[21] 	lookupStabilitySig:mean 	0.42376893939394
scalar Network.dyn_peer[21] 	lookupHopsSig:mean 	4.6136363636364
scalar Network.dyn_peer[22] 	lookupTimeSig:mean 	0.46421052631579
scalar Network.dyn_peer[22] 	lookupStabilitySig:mean 	0.47889863540206
scalar Network.dyn_peer[22] 	lookupHopsSig:mean 	4.1719298245614
scalar Network.dyn_peer[23] 	lookupTimeSig:mean 	0.45344262295082
scalar Network.dyn_peer[23] 	lookupStabilitySig:mean 	0.49007285972599
scalar Network.dyn_peer[23] 	lookupHopsSig:mean 	4.0819672131148
scalar Network.dyn_peer[24] 	lookupTimeSig:mean 	0.49963898916968
scalar Network.dyn_peer[24] 	lookupStabilitySig:mean 	0.43496791012451
scalar Network.dyn_peer[24] 	lookupHopsSig:mean 	4.5234657039711
scalar Network.dyn_peer[25] 	lookupTimeSig:mean 	0.45709779179811
scalar Network.dyn_peer[25] 	lookupStabilitySig:mean 	0.49272695388234
scalar Network.dyn_peer[25] 	lookupHopsSig:mean 	4.0630914826498
scalar Network.dyn_peer[26] 	lookupTimeSig:mean 	0.44520123839009
scalar Network.dyn_peer[26] 	lookupStabilitySig:mean 	0.51646886823624
scalar Network.dyn_peer[26] 	lookupHopsSig:mean 	3.8699690402477
scalar Network.dyn_peer[27] 	lookupTimeSig:mean 	0.44892307692308
scalar Network.dyn_peer[27] 	lookupStabilitySig:mean 	0.49974358971302
scalar Network.dyn_peer[27] 	lookupHopsSig:mean 	4.0061538461538
scalar Network.dyn_peer[28] 	lookupTimeSig:mean 	0.50553633217993
scalar Network.dyn_peer[28] 	lookupStabilitySig:mean 	0.42863321799308
scalar Network.dyn_peer[28] 	lookupHopsSig:mean 	4.5709342560554
scalar Network.dyn_peer[29] 	lookupTimeSig:mean 	0.45789473684211
scalar Network.dyn_peer[29] 	lookupStabilitySig:mean 	0.48748172505906
scalar Network.dyn_peer[29] 	lookupHopsSig:mean 	4.1019736842105
scalar Network.dyn_peer[30] 	lookupTimeSig:mean 	0.48967971530249
scalar Network.dyn_peer[30] 	lookupStabilitySig:mean 	0.44395017793594
scalar Network.dyn_peer[30] 	lookupHopsSig:mean 	4.4483985765125
scalar Network.dyn_peer[31] 	lookupTimeSig:mean 	0.48305647840532
scalar Network.dyn_peer[31] 	lookupStabilitySig:mean 	0.46137873749202
scalar Network.dyn_peer[31] 	lookupHopsSig:mean 	4.312292358804
