version 2
run Stability-norelink-54-20130525-23:17:35-22103
attr configname Stability-norelink
attr datetime 20130525-23:17:35
attr experiment Stability
attr inifile omnetpp.ini
attr iterationvars $0=1e1
attr iterationvars2 "$0=1e1, $repetition=4"
attr measurement $0=1e1
attr network Network
attr processid 22103
attr repetition 4
attr replication #4
attr resultdir results
attr runnumber 54
attr seedset 54

scalar Network.dyn_peer[0] 	lookupTimeSig:mean 	0.46047297297297
scalar Network.dyn_peer[0] 	lookupStabilitySig:mean 	0.49108483476212
scalar Network.dyn_peer[0] 	lookupHopsSig:mean 	4.0743243243243
scalar Network.dyn_peer[1] 	lookupTimeSig:mean 	0.45830618892508
scalar Network.dyn_peer[1] 	lookupStabilitySig:mean 	0.48995656891444
scalar Network.dyn_peer[1] 	lookupHopsSig:mean 	4.0814332247557
scalar Network.dyn_peer[2] 	lookupTimeSig:mean 	0.45475409836066
scalar Network.dyn_peer[2] 	lookupStabilitySig:mean 	0.48082877959384
scalar Network.dyn_peer[2] 	lookupHopsSig:mean 	4.1540983606557
scalar Network.dyn_peer[3] 	lookupTimeSig:mean 	0.47560137457045
scalar Network.dyn_peer[3] 	lookupStabilitySig:mean 	0.46401298204853
scalar Network.dyn_peer[3] 	lookupHopsSig:mean 	4.2886597938144
scalar Network.dyn_peer[4] 	lookupTimeSig:mean 	0.46241379310345
scalar Network.dyn_peer[4] 	lookupStabilitySig:mean 	0.48060344827586
scalar Network.dyn_peer[4] 	lookupHopsSig:mean 	4.1551724137931
scalar Network.dyn_peer[5] 	lookupTimeSig:mean 	0.45413793103448
scalar Network.dyn_peer[5] 	lookupStabilitySig:mean 	0.49473180072061
scalar Network.dyn_peer[5] 	lookupHopsSig:mean 	4.0448275862069
scalar Network.dyn_peer[6] 	lookupTimeSig:mean 	0.46048109965636
scalar Network.dyn_peer[6] 	lookupStabilitySig:mean 	0.47604047345746
scalar Network.dyn_peer[6] 	lookupHopsSig:mean 	4.192439862543
scalar Network.dyn_peer[7] 	lookupTimeSig:mean 	0.475
scalar Network.dyn_peer[7] 	lookupStabilitySig:mean 	0.46367521364337
scalar Network.dyn_peer[7] 	lookupHopsSig:mean 	4.2916666666667
scalar Network.dyn_peer[8] 	lookupTimeSig:mean 	0.4808362369338
scalar Network.dyn_peer[8] 	lookupStabilitySig:mean 	0.4489450249107
scalar Network.dyn_peer[8] 	lookupHopsSig:mean 	4.418118466899
scalar Network.dyn_peer[9] 	lookupTimeSig:mean 	0.45344262295082
scalar Network.dyn_peer[9] 	lookupStabilitySig:mean 	0.49644808739912
scalar Network.dyn_peer[9] 	lookupHopsSig:mean 	4.0295081967213
scalar Network.dyn_peer[10] 	lookupTimeSig:mean 	0.43278145695364
scalar Network.dyn_peer[10] 	lookupStabilitySig:mean 	0.521339219927
scalar Network.dyn_peer[10] 	lookupHopsSig:mean 	3.8311258278146
scalar Network.dyn_peer[11] 	lookupTimeSig:mean 	0.48439716312057
scalar Network.dyn_peer[11] 	lookupStabilitySig:mean 	0.45744680851064
scalar Network.dyn_peer[11] 	lookupHopsSig:mean 	4.3404255319149
scalar Network.dyn_peer[12] 	lookupTimeSig:mean 	0.49154929577465
scalar Network.dyn_peer[12] 	lookupStabilitySig:mean 	0.44454225352113
scalar Network.dyn_peer[12] 	lookupHopsSig:mean 	4.443661971831
scalar Network.dyn_peer[13] 	lookupTimeSig:mean 	0.47431506849315
scalar Network.dyn_peer[13] 	lookupStabilitySig:mean 	0.45890410958904
scalar Network.dyn_peer[13] 	lookupHopsSig:mean 	4.3287671232877
scalar Network.dyn_peer[14] 	lookupTimeSig:mean 	0.49461279461279
scalar Network.dyn_peer[14] 	lookupStabilitySig:mean 	0.43939393939394
scalar Network.dyn_peer[14] 	lookupHopsSig:mean 	4.4848484848485
scalar Network.dyn_peer[15] 	lookupTimeSig:mean 	0.46633333333333
scalar Network.dyn_peer[15] 	lookupStabilitySig:mean 	0.4775
scalar Network.dyn_peer[15] 	lookupHopsSig:mean 	4.18
scalar Network.dyn_peer[16] 	lookupTimeSig:mean 	0.46415770609319
scalar Network.dyn_peer[16] 	lookupStabilitySig:mean 	0.48705694933946
scalar Network.dyn_peer[16] 	lookupHopsSig:mean 	4.1075268817204
scalar Network.dyn_peer[17] 	lookupTimeSig:mean 	0.46712802768166
scalar Network.dyn_peer[17] 	lookupStabilitySig:mean 	0.47549019604406
scalar Network.dyn_peer[17] 	lookupHopsSig:mean 	4.19723183391
scalar Network.dyn_peer[18] 	lookupTimeSig:mean 	0.46322580645161
scalar Network.dyn_peer[18] 	lookupStabilitySig:mean 	0.48266129032258
scalar Network.dyn_peer[18] 	lookupHopsSig:mean 	4.1387096774194
scalar Network.dyn_peer[19] 	lookupTimeSig:mean 	0.43402366863905
scalar Network.dyn_peer[19] 	lookupStabilitySig:mean 	0.52477810650888
scalar Network.dyn_peer[19] 	lookupHopsSig:mean 	3.801775147929
scalar Network.dyn_peer[20] 	lookupTimeSig:mean 	0.41630769230769
scalar Network.dyn_peer[20] 	lookupStabilitySig:mean 	0.54666666665903
scalar Network.dyn_peer[20] 	lookupHopsSig:mean 	3.6276923076923
scalar Network.dyn_peer[21] 	lookupTimeSig:mean 	0.43650793650794
scalar Network.dyn_peer[21] 	lookupStabilitySig:mean 	0.51706349206349
scalar Network.dyn_peer[21] 	lookupHopsSig:mean 	3.8634920634921
scalar Network.dyn_peer[22] 	lookupTimeSig:mean 	0.43385093167702
scalar Network.dyn_peer[22] 	lookupStabilitySig:mean 	0.52273119384458
scalar Network.dyn_peer[22] 	lookupHopsSig:mean 	3.8198757763975
scalar Network.dyn_peer[23] 	lookupTimeSig:mean 	0.45197368421053
scalar Network.dyn_peer[23] 	lookupStabilitySig:mean 	0.50630482443069
scalar Network.dyn_peer[23] 	lookupHopsSig:mean 	3.9539473684211
scalar Network.dyn_peer[24] 	lookupTimeSig:mean 	0.47864768683274
scalar Network.dyn_peer[24] 	lookupStabilitySig:mean 	0.46060695926066
scalar Network.dyn_peer[24] 	lookupHopsSig:mean 	4.3167259786477
scalar Network.dyn_peer[25] 	lookupTimeSig:mean 	0.46007067137809
scalar Network.dyn_peer[25] 	lookupStabilitySig:mean 	0.48719081272085
scalar Network.dyn_peer[25] 	lookupHopsSig:mean 	4.1024734982332
scalar Network.dyn_peer[26] 	lookupTimeSig:mean 	0.44915254237288
scalar Network.dyn_peer[26] 	lookupStabilitySig:mean 	0.50023540480662
scalar Network.dyn_peer[26] 	lookupHopsSig:mean 	4.0033898305085
scalar Network.dyn_peer[27] 	lookupTimeSig:mean 	0.49931740614335
scalar Network.dyn_peer[27] 	lookupStabilitySig:mean 	0.4377133105802
scalar Network.dyn_peer[27] 	lookupHopsSig:mean 	4.4982935153584
scalar Network.dyn_peer[28] 	lookupTimeSig:mean 	0.47655172413793
scalar Network.dyn_peer[28] 	lookupStabilitySig:mean 	0.4662356321154
scalar Network.dyn_peer[28] 	lookupHopsSig:mean 	4.2724137931034
scalar Network.dyn_peer[29] 	lookupTimeSig:mean 	0.47266666666667
scalar Network.dyn_peer[29] 	lookupStabilitySig:mean 	0.47333333333333
scalar Network.dyn_peer[29] 	lookupHopsSig:mean 	4.2133333333333
scalar Network.dyn_peer[30] 	lookupTimeSig:mean 	0.46526315789474
scalar Network.dyn_peer[30] 	lookupStabilitySig:mean 	0.47938596491228
scalar Network.dyn_peer[30] 	lookupHopsSig:mean 	4.1649122807018
scalar Network.dyn_peer[31] 	lookupTimeSig:mean 	0.45275862068966
scalar Network.dyn_peer[31] 	lookupStabilitySig:mean 	0.49195402295425
scalar Network.dyn_peer[31] 	lookupHopsSig:mean 	4.0689655172414
