version 2
run Stability-norelink-132-20130525-23:22:51-22103
attr configname Stability-norelink
attr datetime 20130525-23:22:51
attr experiment Stability
attr inifile omnetpp.ini
attr iterationvars $0=1e-7
attr iterationvars2 "$0=1e-7, $repetition=2"
attr measurement $0=1e-7
attr network Network
attr processid 22103
attr repetition 2
attr replication #2
attr resultdir results
attr runnumber 132
attr seedset 132

scalar Network.dyn_peer[0] 	lookupTimeSig:mean 	0.47172413793103
scalar Network.dyn_peer[0] 	lookupStabilitySig:mean 	0.46681034482759
scalar Network.dyn_peer[0] 	lookupHopsSig:mean 	4.2655172413793
scalar Network.dyn_peer[1] 	lookupTimeSig:mean 	0.45382165605096
scalar Network.dyn_peer[1] 	lookupStabilitySig:mean 	0.48677459302222
scalar Network.dyn_peer[1] 	lookupHopsSig:mean 	4.1082802547771
scalar Network.dyn_peer[2] 	lookupTimeSig:mean 	0.45643564356436
scalar Network.dyn_peer[2] 	lookupStabilitySig:mean 	0.49793729372937
scalar Network.dyn_peer[2] 	lookupHopsSig:mean 	4.016501650165
scalar Network.dyn_peer[3] 	lookupTimeSig:mean 	0.46209150326797
scalar Network.dyn_peer[3] 	lookupStabilitySig:mean 	0.48447712418301
scalar Network.dyn_peer[3] 	lookupHopsSig:mean 	4.1241830065359
scalar Network.dyn_peer[4] 	lookupTimeSig:mean 	0.43238095238095
scalar Network.dyn_peer[4] 	lookupStabilitySig:mean 	0.51613756607449
scalar Network.dyn_peer[4] 	lookupHopsSig:mean 	3.8730158730159
scalar Network.dyn_peer[5] 	lookupTimeSig:mean 	0.47241379310345
scalar Network.dyn_peer[5] 	lookupStabilitySig:mean 	0.46355363983532
scalar Network.dyn_peer[5] 	lookupHopsSig:mean 	4.2931034482759
scalar Network.dyn_peer[6] 	lookupTimeSig:mean 	0.44680134680135
scalar Network.dyn_peer[6] 	lookupStabilitySig:mean 	0.50509726880777
scalar Network.dyn_peer[6] 	lookupHopsSig:mean 	3.962962962963
scalar Network.dyn_peer[7] 	lookupTimeSig:mean 	0.48556338028169
scalar Network.dyn_peer[7] 	lookupStabilitySig:mean 	0.45632824721471
scalar Network.dyn_peer[7] 	lookupHopsSig:mean 	4.3521126760563
scalar Network.dyn_peer[8] 	lookupTimeSig:mean 	0.43993610223642
scalar Network.dyn_peer[8] 	lookupStabilitySig:mean 	0.51606318778314
scalar Network.dyn_peer[8] 	lookupHopsSig:mean 	3.8722044728435
scalar Network.dyn_peer[9] 	lookupTimeSig:mean 	0.485559566787
scalar Network.dyn_peer[9] 	lookupStabilitySig:mean 	0.44469514639799
scalar Network.dyn_peer[9] 	lookupHopsSig:mean 	4.4440433212996
scalar Network.dyn_peer[10] 	lookupTimeSig:mean 	0.51313868613139
scalar Network.dyn_peer[10] 	lookupStabilitySig:mean 	0.40419708029197
scalar Network.dyn_peer[10] 	lookupHopsSig:mean 	4.7664233576642
scalar Network.dyn_peer[11] 	lookupTimeSig:mean 	0.46156462585034
scalar Network.dyn_peer[11] 	lookupStabilitySig:mean 	0.48256802721088
scalar Network.dyn_peer[11] 	lookupHopsSig:mean 	4.1394557823129
scalar Network.dyn_peer[12] 	lookupTimeSig:mean 	0.424
scalar Network.dyn_peer[12] 	lookupStabilitySig:mean 	0.52833333333333
scalar Network.dyn_peer[12] 	lookupHopsSig:mean 	3.7733333333333
scalar Network.dyn_peer[13] 	lookupTimeSig:mean 	0.44493670886076
scalar Network.dyn_peer[13] 	lookupStabilitySig:mean 	0.5006592826847
scalar Network.dyn_peer[13] 	lookupHopsSig:mean 	3.996835443038
scalar Network.dyn_peer[14] 	lookupTimeSig:mean 	0.45876623376623
scalar Network.dyn_peer[14] 	lookupStabilitySig:mean 	0.48119588738138
scalar Network.dyn_peer[14] 	lookupHopsSig:mean 	4.1525974025974
scalar Network.dyn_peer[15] 	lookupTimeSig:mean 	0.4334328358209
scalar Network.dyn_peer[15] 	lookupStabilitySig:mean 	0.52516583744715
scalar Network.dyn_peer[15] 	lookupHopsSig:mean 	3.8
scalar Network.dyn_peer[16] 	lookupTimeSig:mean 	0.43465346534653
scalar Network.dyn_peer[16] 	lookupStabilitySig:mean 	0.52264393093956
scalar Network.dyn_peer[16] 	lookupHopsSig:mean 	3.8217821782178
scalar Network.dyn_peer[17] 	lookupTimeSig:mean 	0.47541528239203
scalar Network.dyn_peer[17] 	lookupStabilitySig:mean 	0.47065337759712
scalar Network.dyn_peer[17] 	lookupHopsSig:mean 	4.2358803986711
scalar Network.dyn_peer[18] 	lookupTimeSig:mean 	0.47173144876325
scalar Network.dyn_peer[18] 	lookupStabilitySig:mean 	0.47668826069301
scalar Network.dyn_peer[18] 	lookupHopsSig:mean 	4.1872791519435
scalar Network.dyn_peer[19] 	lookupTimeSig:mean 	0.48515901060071
scalar Network.dyn_peer[19] 	lookupStabilitySig:mean 	0.4452296819788
scalar Network.dyn_peer[19] 	lookupHopsSig:mean 	4.4381625441696
scalar Network.dyn_peer[20] 	lookupTimeSig:mean 	0.48172043010753
scalar Network.dyn_peer[20] 	lookupStabilitySig:mean 	0.45295698914049
scalar Network.dyn_peer[20] 	lookupHopsSig:mean 	4.3799283154122
scalar Network.dyn_peer[21] 	lookupTimeSig:mean 	0.48162544169611
scalar Network.dyn_peer[21] 	lookupStabilitySig:mean 	0.45214958773274
scalar Network.dyn_peer[21] 	lookupHopsSig:mean 	4.3851590106007
scalar Network.dyn_peer[22] 	lookupTimeSig:mean 	0.43519736842105
scalar Network.dyn_peer[22] 	lookupStabilitySig:mean 	0.51950840642186
scalar Network.dyn_peer[22] 	lookupHopsSig:mean 	3.8453947368421
scalar Network.dyn_peer[23] 	lookupTimeSig:mean 	0.4777027027027
scalar Network.dyn_peer[23] 	lookupStabilitySig:mean 	0.45396959459459
scalar Network.dyn_peer[23] 	lookupHopsSig:mean 	4.3682432432432
scalar Network.dyn_peer[24] 	lookupTimeSig:mean 	0.46423611111111
scalar Network.dyn_peer[24] 	lookupStabilitySig:mean 	0.47588734571925
scalar Network.dyn_peer[24] 	lookupHopsSig:mean 	4.1979166666667
scalar Network.dyn_peer[25] 	lookupTimeSig:mean 	0.495
scalar Network.dyn_peer[25] 	lookupStabilitySig:mean 	0.44583333326238
scalar Network.dyn_peer[25] 	lookupHopsSig:mean 	4.4357142857143
scalar Network.dyn_peer[26] 	lookupTimeSig:mean 	0.45694444444444
scalar Network.dyn_peer[26] 	lookupStabilitySig:mean 	0.49291087961238
scalar Network.dyn_peer[26] 	lookupHopsSig:mean 	4.0590277777778
scalar Network.dyn_peer[27] 	lookupTimeSig:mean 	0.48327645051195
scalar Network.dyn_peer[27] 	lookupStabilitySig:mean 	0.45757489567527
scalar Network.dyn_peer[27] 	lookupHopsSig:mean 	4.3412969283276
scalar Network.dyn_peer[28] 	lookupTimeSig:mean 	0.46889632107023
scalar Network.dyn_peer[28] 	lookupStabilitySig:mean 	0.47700668891337
scalar Network.dyn_peer[28] 	lookupHopsSig:mean 	4.1872909698997
scalar Network.dyn_peer[29] 	lookupTimeSig:mean 	0.45644599303136
scalar Network.dyn_peer[29] 	lookupStabilitySig:mean 	0.4884823846277
scalar Network.dyn_peer[29] 	lookupHopsSig:mean 	4.0975609756098
scalar Network.dyn_peer[30] 	lookupTimeSig:mean 	0.44361370716511
scalar Network.dyn_peer[30] 	lookupStabilitySig:mean 	0.50134129453207
scalar Network.dyn_peer[30] 	lookupHopsSig:mean 	3.993769470405
scalar Network.dyn_peer[31] 	lookupTimeSig:mean 	0.43658536585366
scalar Network.dyn_peer[31] 	lookupStabilitySig:mean 	0.52117208654924
scalar Network.dyn_peer[31] 	lookupHopsSig:mean 	3.8353658536585
