version 2
run Stability-norelink-138-20130525-23:23:15-22103
attr configname Stability-norelink
attr datetime 20130525-23:23:15
attr experiment Stability
attr inifile omnetpp.ini
attr iterationvars $0=1e-7
attr iterationvars2 "$0=1e-7, $repetition=8"
attr measurement $0=1e-7
attr network Network
attr processid 22103
attr repetition 8
attr replication #8
attr resultdir results
attr runnumber 138
attr seedset 138

scalar Network.dyn_peer[0] 	lookupTimeSig:mean 	0.45049504950495
scalar Network.dyn_peer[0] 	lookupStabilitySig:mean 	0.49724972493971
scalar Network.dyn_peer[0] 	lookupHopsSig:mean 	4.023102310231
scalar Network.dyn_peer[1] 	lookupTimeSig:mean 	0.49283018867925
scalar Network.dyn_peer[1] 	lookupStabilitySig:mean 	0.43411949681786
scalar Network.dyn_peer[1] 	lookupHopsSig:mean 	4.5283018867925
scalar Network.dyn_peer[2] 	lookupTimeSig:mean 	0.48576642335766
scalar Network.dyn_peer[2] 	lookupStabilitySig:mean 	0.44855028374569
scalar Network.dyn_peer[2] 	lookupHopsSig:mean 	4.4160583941606
scalar Network.dyn_peer[3] 	lookupTimeSig:mean 	0.45845070422535
scalar Network.dyn_peer[3] 	lookupStabilitySig:mean 	0.48669796552457
scalar Network.dyn_peer[3] 	lookupHopsSig:mean 	4.1091549295775
scalar Network.dyn_peer[4] 	lookupTimeSig:mean 	0.45165562913907
scalar Network.dyn_peer[4] 	lookupStabilitySig:mean 	0.4988502573888
scalar Network.dyn_peer[4] 	lookupHopsSig:mean 	4.0165562913907
scalar Network.dyn_peer[5] 	lookupTimeSig:mean 	0.44548192771084
scalar Network.dyn_peer[5] 	lookupStabilitySig:mean 	0.4996234939759
scalar Network.dyn_peer[5] 	lookupHopsSig:mean 	4.0030120481928
scalar Network.dyn_peer[6] 	lookupTimeSig:mean 	0.50177304964539
scalar Network.dyn_peer[6] 	lookupStabilitySig:mean 	0.42789598105224
scalar Network.dyn_peer[6] 	lookupHopsSig:mean 	4.5815602836879
scalar Network.dyn_peer[7] 	lookupTimeSig:mean 	0.45796178343949
scalar Network.dyn_peer[7] 	lookupStabilitySig:mean 	0.49164012738854
scalar Network.dyn_peer[7] 	lookupHopsSig:mean 	4.0668789808917
scalar Network.dyn_peer[8] 	lookupTimeSig:mean 	0.4775974025974
scalar Network.dyn_peer[8] 	lookupStabilitySig:mean 	0.45937049050223
scalar Network.dyn_peer[8] 	lookupHopsSig:mean 	4.3279220779221
scalar Network.dyn_peer[9] 	lookupTimeSig:mean 	0.43450704225352
scalar Network.dyn_peer[9] 	lookupStabilitySig:mean 	0.51506259780325
scalar Network.dyn_peer[9] 	lookupHopsSig:mean 	3.8802816901408
scalar Network.dyn_peer[10] 	lookupTimeSig:mean 	0.48723404255319
scalar Network.dyn_peer[10] 	lookupStabilitySig:mean 	0.44799054369119
scalar Network.dyn_peer[10] 	lookupHopsSig:mean 	4.4184397163121
scalar Network.dyn_peer[11] 	lookupTimeSig:mean 	0.45909090909091
scalar Network.dyn_peer[11] 	lookupStabilitySig:mean 	0.47843822842086
scalar Network.dyn_peer[11] 	lookupHopsSig:mean 	4.1748251748252
scalar Network.dyn_peer[12] 	lookupTimeSig:mean 	0.45973154362416
scalar Network.dyn_peer[12] 	lookupStabilitySig:mean 	0.48564504096972
scalar Network.dyn_peer[12] 	lookupHopsSig:mean 	4.1174496644295
scalar Network.dyn_peer[13] 	lookupTimeSig:mean 	0.45627118644068
scalar Network.dyn_peer[13] 	lookupStabilitySig:mean 	0.49646892648632
scalar Network.dyn_peer[13] 	lookupHopsSig:mean 	4.0305084745763
scalar Network.dyn_peer[14] 	lookupTimeSig:mean 	0.48496503496503
scalar Network.dyn_peer[14] 	lookupStabilitySig:mean 	0.4490578864421
scalar Network.dyn_peer[14] 	lookupHopsSig:mean 	4.4125874125874
scalar Network.dyn_peer[15] 	lookupTimeSig:mean 	0.47385620915033
scalar Network.dyn_peer[15] 	lookupStabilitySig:mean 	0.46704793025076
scalar Network.dyn_peer[15] 	lookupHopsSig:mean 	4.2647058823529
scalar Network.dyn_peer[16] 	lookupTimeSig:mean 	0.44545454545455
scalar Network.dyn_peer[16] 	lookupStabilitySig:mean 	0.50706135423898
scalar Network.dyn_peer[16] 	lookupHopsSig:mean 	3.9461279461279
scalar Network.dyn_peer[17] 	lookupTimeSig:mean 	0.46504854368932
scalar Network.dyn_peer[17] 	lookupStabilitySig:mean 	0.47923408836898
scalar Network.dyn_peer[17] 	lookupHopsSig:mean 	4.168284789644
scalar Network.dyn_peer[18] 	lookupTimeSig:mean 	0.44075342465753
scalar Network.dyn_peer[18] 	lookupStabilitySig:mean 	0.51154870613899
scalar Network.dyn_peer[18] 	lookupHopsSig:mean 	3.9109589041096
scalar Network.dyn_peer[19] 	lookupTimeSig:mean 	0.47625899280576
scalar Network.dyn_peer[19] 	lookupStabilitySig:mean 	0.46113109502861
scalar Network.dyn_peer[19] 	lookupHopsSig:mean 	4.3129496402878
scalar Network.dyn_peer[20] 	lookupTimeSig:mean 	0.44582132564842
scalar Network.dyn_peer[20] 	lookupStabilitySig:mean 	0.51308837648943
scalar Network.dyn_peer[20] 	lookupHopsSig:mean 	3.8991354466859
scalar Network.dyn_peer[21] 	lookupTimeSig:mean 	0.46459016393443
scalar Network.dyn_peer[21] 	lookupStabilitySig:mean 	0.47750455373135
scalar Network.dyn_peer[21] 	lookupHopsSig:mean 	4.1803278688525
scalar Network.dyn_peer[22] 	lookupTimeSig:mean 	0.44405144694534
scalar Network.dyn_peer[22] 	lookupStabilitySig:mean 	0.50495712751361
scalar Network.dyn_peer[22] 	lookupHopsSig:mean 	3.9614147909968
scalar Network.dyn_peer[23] 	lookupTimeSig:mean 	0.48628762541806
scalar Network.dyn_peer[23] 	lookupStabilitySig:mean 	0.46209587510613
scalar Network.dyn_peer[23] 	lookupHopsSig:mean 	4.304347826087
scalar Network.dyn_peer[24] 	lookupTimeSig:mean 	0.46518771331058
scalar Network.dyn_peer[24] 	lookupStabilitySig:mean 	0.48729616988438
scalar Network.dyn_peer[24] 	lookupHopsSig:mean 	4.1023890784983
scalar Network.dyn_peer[25] 	lookupTimeSig:mean 	0.50769230769231
scalar Network.dyn_peer[25] 	lookupStabilitySig:mean 	0.42293123533572
scalar Network.dyn_peer[25] 	lookupHopsSig:mean 	4.6188811188811
scalar Network.dyn_peer[26] 	lookupTimeSig:mean 	0.45584415584416
scalar Network.dyn_peer[26] 	lookupStabilitySig:mean 	0.5007665944709
scalar Network.dyn_peer[26] 	lookupHopsSig:mean 	3.9967532467532
scalar Network.dyn_peer[27] 	lookupTimeSig:mean 	0.45951557093426
scalar Network.dyn_peer[27] 	lookupStabilitySig:mean 	0.48639946173116
scalar Network.dyn_peer[27] 	lookupHopsSig:mean 	4.1107266435986
scalar Network.dyn_peer[28] 	lookupTimeSig:mean 	0.44826498422713
scalar Network.dyn_peer[28] 	lookupStabilitySig:mean 	0.5051261829418
scalar Network.dyn_peer[28] 	lookupHopsSig:mean 	3.9621451104101
scalar Network.dyn_peer[29] 	lookupTimeSig:mean 	0.46498316498317
scalar Network.dyn_peer[29] 	lookupStabilitySig:mean 	0.4760101010101
scalar Network.dyn_peer[29] 	lookupHopsSig:mean 	4.1919191919192
scalar Network.dyn_peer[30] 	lookupTimeSig:mean 	0.49731543624161
scalar Network.dyn_peer[30] 	lookupStabilitySig:mean 	0.44015659954424
scalar Network.dyn_peer[30] 	lookupHopsSig:mean 	4.4798657718121
scalar Network.dyn_peer[31] 	lookupTimeSig:mean 	0.48538205980066
scalar Network.dyn_peer[31] 	lookupStabilitySig:mean 	0.4547342192691
scalar Network.dyn_peer[31] 	lookupHopsSig:mean 	4.3621262458472
