version 2
run Stability-norelink-69-20130525-23:18:35-22103
attr configname Stability-norelink
attr datetime 20130525-23:18:35
attr experiment Stability
attr inifile omnetpp.ini
attr iterationvars $0=1e0
attr iterationvars2 "$0=1e0, $repetition=9"
attr measurement $0=1e0
attr network Network
attr processid 22103
attr repetition 9
attr replication #9
attr resultdir results
attr runnumber 69
attr seedset 69

scalar Network.dyn_peer[0] 	lookupTimeSig:mean 	0.49283154121864
scalar Network.dyn_peer[0] 	lookupStabilitySig:mean 	0.44220430107527
scalar Network.dyn_peer[0] 	lookupHopsSig:mean 	4.4623655913978
scalar Network.dyn_peer[1] 	lookupTimeSig:mean 	0.45147540983607
scalar Network.dyn_peer[1] 	lookupStabilitySig:mean 	0.49121129322247
scalar Network.dyn_peer[1] 	lookupHopsSig:mean 	4.072131147541
scalar Network.dyn_peer[2] 	lookupTimeSig:mean 	0.49518900343643
scalar Network.dyn_peer[2] 	lookupStabilitySig:mean 	0.43485108803945
scalar Network.dyn_peer[2] 	lookupHopsSig:mean 	4.5257731958763
scalar Network.dyn_peer[3] 	lookupTimeSig:mean 	0.45704225352113
scalar Network.dyn_peer[3] 	lookupStabilitySig:mean 	0.48547535211268
scalar Network.dyn_peer[3] 	lookupHopsSig:mean 	4.1161971830986
scalar Network.dyn_peer[4] 	lookupTimeSig:mean 	0.46700336700337
scalar Network.dyn_peer[4] 	lookupStabilitySig:mean 	0.47951739615061
scalar Network.dyn_peer[4] 	lookupHopsSig:mean 	4.1649831649832
scalar Network.dyn_peer[5] 	lookupTimeSig:mean 	0.49146757679181
scalar Network.dyn_peer[5] 	lookupStabilitySig:mean 	0.44041524456223
scalar Network.dyn_peer[5] 	lookupHopsSig:mean 	4.4778156996587
scalar Network.dyn_peer[6] 	lookupTimeSig:mean 	0.51672727272727
scalar Network.dyn_peer[6] 	lookupStabilitySig:mean 	0.40409090909091
scalar Network.dyn_peer[6] 	lookupHopsSig:mean 	4.7672727272727
scalar Network.dyn_peer[7] 	lookupTimeSig:mean 	0.45596330275229
scalar Network.dyn_peer[7] 	lookupStabilitySig:mean 	0.49286442393557
scalar Network.dyn_peer[7] 	lookupHopsSig:mean 	4.0611620795107
scalar Network.dyn_peer[8] 	lookupTimeSig:mean 	0.45830618892508
scalar Network.dyn_peer[8] 	lookupStabilitySig:mean 	0.49054469774911
scalar Network.dyn_peer[8] 	lookupHopsSig:mean 	4.0781758957655
scalar Network.dyn_peer[9] 	lookupTimeSig:mean 	0.45637583892617
scalar Network.dyn_peer[9] 	lookupStabilitySig:mean 	0.48993288590604
scalar Network.dyn_peer[9] 	lookupHopsSig:mean 	4.0805369127517
scalar Network.dyn_peer[10] 	lookupTimeSig:mean 	0.47346278317152
scalar Network.dyn_peer[10] 	lookupStabilitySig:mean 	0.47262675293441
scalar Network.dyn_peer[10] 	lookupHopsSig:mean 	4.2200647249191
scalar Network.dyn_peer[11] 	lookupTimeSig:mean 	0.47368421052632
scalar Network.dyn_peer[11] 	lookupStabilitySig:mean 	0.46806469294978
scalar Network.dyn_peer[11] 	lookupHopsSig:mean 	4.2565789473684
scalar Network.dyn_peer[12] 	lookupTimeSig:mean 	0.487
scalar Network.dyn_peer[12] 	lookupStabilitySig:mean 	0.45078703701496
scalar Network.dyn_peer[12] 	lookupHopsSig:mean 	4.3966666666667
scalar Network.dyn_peer[13] 	lookupTimeSig:mean 	0.47816455696203
scalar Network.dyn_peer[13] 	lookupStabilitySig:mean 	0.46518987341772
scalar Network.dyn_peer[13] 	lookupHopsSig:mean 	4.2784810126582
scalar Network.dyn_peer[14] 	lookupTimeSig:mean 	0.47175324675325
scalar Network.dyn_peer[14] 	lookupStabilitySig:mean 	0.46884018758481
scalar Network.dyn_peer[14] 	lookupHopsSig:mean 	4.25
scalar Network.dyn_peer[15] 	lookupTimeSig:mean 	0.44620689655172
scalar Network.dyn_peer[15] 	lookupStabilitySig:mean 	0.50172413785396
scalar Network.dyn_peer[15] 	lookupHopsSig:mean 	3.9896551724138
scalar Network.dyn_peer[16] 	lookupTimeSig:mean 	0.46558441558442
scalar Network.dyn_peer[16] 	lookupStabilitySig:mean 	0.48029401153326
scalar Network.dyn_peer[16] 	lookupHopsSig:mean 	4.1590909090909
scalar Network.dyn_peer[17] 	lookupTimeSig:mean 	0.45886075949367
scalar Network.dyn_peer[17] 	lookupStabilitySig:mean 	0.48470464122446
scalar Network.dyn_peer[17] 	lookupHopsSig:mean 	4.126582278481
scalar Network.dyn_peer[18] 	lookupTimeSig:mean 	0.42559523809524
scalar Network.dyn_peer[18] 	lookupStabilitySig:mean 	0.53100198409742
scalar Network.dyn_peer[18] 	lookupHopsSig:mean 	3.7529761904762
scalar Network.dyn_peer[19] 	lookupTimeSig:mean 	0.49459459459459
scalar Network.dyn_peer[19] 	lookupStabilitySig:mean 	0.43243243243243
scalar Network.dyn_peer[19] 	lookupHopsSig:mean 	4.5405405405405
scalar Network.dyn_peer[20] 	lookupTimeSig:mean 	0.52427536231884
scalar Network.dyn_peer[20] 	lookupStabilitySig:mean 	0.40625
scalar Network.dyn_peer[20] 	lookupHopsSig:mean 	4.75
scalar Network.dyn_peer[21] 	lookupTimeSig:mean 	0.48576158940397
scalar Network.dyn_peer[21] 	lookupStabilitySig:mean 	0.44145511404075
scalar Network.dyn_peer[21] 	lookupHopsSig:mean 	4.4701986754967
scalar Network.dyn_peer[22] 	lookupTimeSig:mean 	0.44512987012987
scalar Network.dyn_peer[22] 	lookupStabilitySig:mean 	0.50568181818182
scalar Network.dyn_peer[22] 	lookupHopsSig:mean 	3.9545454545455
scalar Network.dyn_peer[23] 	lookupTimeSig:mean 	0.44815950920245
scalar Network.dyn_peer[23] 	lookupStabilitySig:mean 	0.50511247440716
scalar Network.dyn_peer[23] 	lookupHopsSig:mean 	3.9601226993865
scalar Network.dyn_peer[24] 	lookupTimeSig:mean 	0.46006289308176
scalar Network.dyn_peer[24] 	lookupStabilitySig:mean 	0.48624213836478
scalar Network.dyn_peer[24] 	lookupHopsSig:mean 	4.1100628930818
scalar Network.dyn_peer[25] 	lookupTimeSig:mean 	0.45945945945946
scalar Network.dyn_peer[25] 	lookupStabilitySig:mean 	0.49249249249249
scalar Network.dyn_peer[25] 	lookupHopsSig:mean 	4.0600600600601
scalar Network.dyn_peer[26] 	lookupTimeSig:mean 	0.46202090592335
scalar Network.dyn_peer[26] 	lookupStabilitySig:mean 	0.4865950445161
scalar Network.dyn_peer[26] 	lookupHopsSig:mean 	4.1080139372822
scalar Network.dyn_peer[27] 	lookupTimeSig:mean 	0.47128027681661
scalar Network.dyn_peer[27] 	lookupStabilitySig:mean 	0.46929065743945
scalar Network.dyn_peer[27] 	lookupHopsSig:mean 	4.2456747404844
scalar Network.dyn_peer[28] 	lookupTimeSig:mean 	0.47899686520376
scalar Network.dyn_peer[28] 	lookupStabilitySig:mean 	0.4671717170731
scalar Network.dyn_peer[28] 	lookupHopsSig:mean 	4.2664576802508
scalar Network.dyn_peer[29] 	lookupTimeSig:mean 	0.51751824817518
scalar Network.dyn_peer[29] 	lookupStabilitySig:mean 	0.40323398191563
scalar Network.dyn_peer[29] 	lookupHopsSig:mean 	4.7810218978102
scalar Network.dyn_peer[30] 	lookupTimeSig:mean 	0.51423357664234
scalar Network.dyn_peer[30] 	lookupStabilitySig:mean 	0.4128142739952
scalar Network.dyn_peer[30] 	lookupHopsSig:mean 	4.7007299270073
scalar Network.dyn_peer[31] 	lookupTimeSig:mean 	0.45874587458746
scalar Network.dyn_peer[31] 	lookupStabilitySig:mean 	0.49917491749175
scalar Network.dyn_peer[31] 	lookupHopsSig:mean 	4.006600660066
