version 2
run Stability-norelink-79-20130525-23:19:16-22103
attr configname Stability-norelink
attr datetime 20130525-23:19:16
attr experiment Stability
attr inifile omnetpp.ini
attr iterationvars $0=1e-1
attr iterationvars2 "$0=1e-1, $repetition=9"
attr measurement $0=1e-1
attr network Network
attr processid 22103
attr repetition 9
attr replication #9
attr resultdir results
attr runnumber 79
attr seedset 79

scalar Network.dyn_peer[0] 	lookupTimeSig:mean 	0.4481228668942
scalar Network.dyn_peer[0] 	lookupStabilitySig:mean 	0.50156427741864
scalar Network.dyn_peer[0] 	lookupHopsSig:mean 	3.9931740614334
scalar Network.dyn_peer[1] 	lookupTimeSig:mean 	0.47118644067797
scalar Network.dyn_peer[1] 	lookupStabilitySig:mean 	0.47231638408818
scalar Network.dyn_peer[1] 	lookupHopsSig:mean 	4.2237288135593
scalar Network.dyn_peer[2] 	lookupTimeSig:mean 	0.4621875
scalar Network.dyn_peer[2] 	lookupStabilitySig:mean 	0.48546006921679
scalar Network.dyn_peer[2] 	lookupHopsSig:mean 	4.121875
scalar Network.dyn_peer[3] 	lookupTimeSig:mean 	0.47414965986395
scalar Network.dyn_peer[3] 	lookupStabilitySig:mean 	0.4617819349934
scalar Network.dyn_peer[3] 	lookupHopsSig:mean 	4.3061224489796
scalar Network.dyn_peer[4] 	lookupTimeSig:mean 	0.45404530744337
scalar Network.dyn_peer[4] 	lookupStabilitySig:mean 	0.49797734627832
scalar Network.dyn_peer[4] 	lookupHopsSig:mean 	4.0161812297735
scalar Network.dyn_peer[5] 	lookupTimeSig:mean 	0.4515923566879
scalar Network.dyn_peer[5] 	lookupStabilitySig:mean 	0.5038924273934
scalar Network.dyn_peer[5] 	lookupHopsSig:mean 	3.9745222929936
scalar Network.dyn_peer[6] 	lookupTimeSig:mean 	0.50950819672131
scalar Network.dyn_peer[6] 	lookupStabilitySig:mean 	0.42759562840716
scalar Network.dyn_peer[6] 	lookupHopsSig:mean 	4.5803278688525
scalar Network.dyn_peer[7] 	lookupTimeSig:mean 	0.46423841059603
scalar Network.dyn_peer[7] 	lookupStabilitySig:mean 	0.4782928623111
scalar Network.dyn_peer[7] 	lookupHopsSig:mean 	4.1754966887417
scalar Network.dyn_peer[8] 	lookupTimeSig:mean 	0.46114864864865
scalar Network.dyn_peer[8] 	lookupStabilitySig:mean 	0.48165352851454
scalar Network.dyn_peer[8] 	lookupHopsSig:mean 	4.1486486486486
scalar Network.dyn_peer[9] 	lookupTimeSig:mean 	0.48900343642612
scalar Network.dyn_peer[9] 	lookupStabilitySig:mean 	0.44544673539519
scalar Network.dyn_peer[9] 	lookupHopsSig:mean 	4.4364261168385
scalar Network.dyn_peer[10] 	lookupTimeSig:mean 	0.49194139194139
scalar Network.dyn_peer[10] 	lookupStabilitySig:mean 	0.4426638176153
scalar Network.dyn_peer[10] 	lookupHopsSig:mean 	4.4615384615385
scalar Network.dyn_peer[11] 	lookupTimeSig:mean 	0.49453924914676
scalar Network.dyn_peer[11] 	lookupStabilitySig:mean 	0.4377133105802
scalar Network.dyn_peer[11] 	lookupHopsSig:mean 	4.4982935153584
scalar Network.dyn_peer[12] 	lookupTimeSig:mean 	0.49834437086093
scalar Network.dyn_peer[12] 	lookupStabilitySig:mean 	0.4337748343384
scalar Network.dyn_peer[12] 	lookupHopsSig:mean 	4.5331125827815
scalar Network.dyn_peer[13] 	lookupTimeSig:mean 	0.45245901639344
scalar Network.dyn_peer[13] 	lookupStabilitySig:mean 	0.50469034587751
scalar Network.dyn_peer[13] 	lookupHopsSig:mean 	3.9672131147541
scalar Network.dyn_peer[14] 	lookupTimeSig:mean 	0.47321428571429
scalar Network.dyn_peer[14] 	lookupStabilitySig:mean 	0.4619047618338
scalar Network.dyn_peer[14] 	lookupHopsSig:mean 	4.3071428571429
scalar Network.dyn_peer[15] 	lookupTimeSig:mean 	0.47891373801917
scalar Network.dyn_peer[15] 	lookupStabilitySig:mean 	0.46152822144877
scalar Network.dyn_peer[15] 	lookupHopsSig:mean 	4.3099041533546
scalar Network.dyn_peer[16] 	lookupTimeSig:mean 	0.48745519713262
scalar Network.dyn_peer[16] 	lookupStabilitySig:mean 	0.43951612892544
scalar Network.dyn_peer[16] 	lookupHopsSig:mean 	4.4874551971326
scalar Network.dyn_peer[17] 	lookupTimeSig:mean 	0.5
scalar Network.dyn_peer[17] 	lookupStabilitySig:mean 	0.4318667443899
scalar Network.dyn_peer[17] 	lookupHopsSig:mean 	4.5524475524476
scalar Network.dyn_peer[18] 	lookupTimeSig:mean 	0.43262195121951
scalar Network.dyn_peer[18] 	lookupStabilitySig:mean 	0.52955623298157
scalar Network.dyn_peer[18] 	lookupHopsSig:mean 	3.765243902439
scalar Network.dyn_peer[19] 	lookupTimeSig:mean 	0.47138364779874
scalar Network.dyn_peer[19] 	lookupStabilitySig:mean 	0.46759259250929
scalar Network.dyn_peer[19] 	lookupHopsSig:mean 	4.2641509433962
scalar Network.dyn_peer[20] 	lookupTimeSig:mean 	0.48040540540541
scalar Network.dyn_peer[20] 	lookupStabilitySig:mean 	0.45908408408129
scalar Network.dyn_peer[20] 	lookupHopsSig:mean 	4.3277027027027
scalar Network.dyn_peer[21] 	lookupTimeSig:mean 	0.46599326599327
scalar Network.dyn_peer[21] 	lookupStabilitySig:mean 	0.47357837635058
scalar Network.dyn_peer[21] 	lookupHopsSig:mean 	4.2121212121212
scalar Network.dyn_peer[22] 	lookupTimeSig:mean 	0.4958174904943
scalar Network.dyn_peer[22] 	lookupStabilitySig:mean 	0.43821292775665
scalar Network.dyn_peer[22] 	lookupHopsSig:mean 	4.4942965779468
scalar Network.dyn_peer[23] 	lookupTimeSig:mean 	0.49661016949153
scalar Network.dyn_peer[23] 	lookupStabilitySig:mean 	0.43832391702523
scalar Network.dyn_peer[23] 	lookupHopsSig:mean 	4.4983050847458
scalar Network.dyn_peer[24] 	lookupTimeSig:mean 	0.49268292682927
scalar Network.dyn_peer[24] 	lookupStabilitySig:mean 	0.43945993031359
scalar Network.dyn_peer[24] 	lookupHopsSig:mean 	4.4843205574913
scalar Network.dyn_peer[25] 	lookupTimeSig:mean 	0.51698113207547
scalar Network.dyn_peer[25] 	lookupStabilitySig:mean 	0.40188679245283
scalar Network.dyn_peer[25] 	lookupHopsSig:mean 	4.7849056603774
scalar Network.dyn_peer[26] 	lookupTimeSig:mean 	0.45193548387097
scalar Network.dyn_peer[26] 	lookupStabilitySig:mean 	0.49964157696212
scalar Network.dyn_peer[26] 	lookupHopsSig:mean 	4.0064516129032
scalar Network.dyn_peer[27] 	lookupTimeSig:mean 	0.47182130584192
scalar Network.dyn_peer[27] 	lookupStabilitySig:mean 	0.46940626180971
scalar Network.dyn_peer[27] 	lookupHopsSig:mean 	4.2508591065292
scalar Network.dyn_peer[28] 	lookupTimeSig:mean 	0.50594405594406
scalar Network.dyn_peer[28] 	lookupStabilitySig:mean 	0.41695804195804
scalar Network.dyn_peer[28] 	lookupHopsSig:mean 	4.6643356643357
scalar Network.dyn_peer[29] 	lookupTimeSig:mean 	0.45945017182131
scalar Network.dyn_peer[29] 	lookupStabilitySig:mean 	0.4850133638765
scalar Network.dyn_peer[29] 	lookupHopsSig:mean 	4.1202749140893
scalar Network.dyn_peer[30] 	lookupTimeSig:mean 	0.48456591639871
scalar Network.dyn_peer[30] 	lookupStabilitySig:mean 	0.46096820288437
scalar Network.dyn_peer[30] 	lookupHopsSig:mean 	4.3151125401929
scalar Network.dyn_peer[31] 	lookupTimeSig:mean 	0.49166666666667
scalar Network.dyn_peer[31] 	lookupStabilitySig:mean 	0.4490740739241
scalar Network.dyn_peer[31] 	lookupHopsSig:mean 	4.4130434782609
