version 2
run Stability-norelink-147-20130525-23:23:51-22103
attr configname Stability-norelink
attr datetime 20130525-23:23:51
attr experiment Stability
attr inifile omnetpp.ini
attr iterationvars $0=1e-8
attr iterationvars2 "$0=1e-8, $repetition=7"
attr measurement $0=1e-8
attr network Network
attr processid 22103
attr repetition 7
attr replication #7
attr resultdir results
attr runnumber 147
attr seedset 147

scalar Network.dyn_peer[0] 	lookupTimeSig:mean 	0.45196078431373
scalar Network.dyn_peer[0] 	lookupStabilitySig:mean 	0.4902414669301
scalar Network.dyn_peer[0] 	lookupHopsSig:mean 	4.0816993464052
scalar Network.dyn_peer[1] 	lookupTimeSig:mean 	0.44193548387097
scalar Network.dyn_peer[1] 	lookupStabilitySig:mean 	0.50654121863265
scalar Network.dyn_peer[1] 	lookupHopsSig:mean 	3.9483870967742
scalar Network.dyn_peer[2] 	lookupTimeSig:mean 	0.49547038327526
scalar Network.dyn_peer[2] 	lookupStabilitySig:mean 	0.43316879593329
scalar Network.dyn_peer[2] 	lookupHopsSig:mean 	4.5365853658537
scalar Network.dyn_peer[3] 	lookupTimeSig:mean 	0.43819875776398
scalar Network.dyn_peer[3] 	lookupStabilitySig:mean 	0.51017943399478
scalar Network.dyn_peer[3] 	lookupHopsSig:mean 	3.9223602484472
scalar Network.dyn_peer[4] 	lookupTimeSig:mean 	0.46317567567568
scalar Network.dyn_peer[4] 	lookupStabilitySig:mean 	0.48231043543264
scalar Network.dyn_peer[4] 	lookupHopsSig:mean 	4.1418918918919
scalar Network.dyn_peer[5] 	lookupTimeSig:mean 	0.49119718309859
scalar Network.dyn_peer[5] 	lookupStabilitySig:mean 	0.44776995301666
scalar Network.dyn_peer[5] 	lookupHopsSig:mean 	4.419014084507
scalar Network.dyn_peer[6] 	lookupTimeSig:mean 	0.46410256410256
scalar Network.dyn_peer[6] 	lookupStabilitySig:mean 	0.48277243589744
scalar Network.dyn_peer[6] 	lookupHopsSig:mean 	4.1378205128205
scalar Network.dyn_peer[7] 	lookupTimeSig:mean 	0.43734939759036
scalar Network.dyn_peer[7] 	lookupStabilitySig:mean 	0.50949631860278
scalar Network.dyn_peer[7] 	lookupHopsSig:mean 	3.9246987951807
scalar Network.dyn_peer[8] 	lookupTimeSig:mean 	0.47573770491803
scalar Network.dyn_peer[8] 	lookupStabilitySig:mean 	0.46580145718133
scalar Network.dyn_peer[8] 	lookupHopsSig:mean 	4.2754098360656
scalar Network.dyn_peer[9] 	lookupTimeSig:mean 	0.45670731707317
scalar Network.dyn_peer[9] 	lookupStabilitySig:mean 	0.4874237804878
scalar Network.dyn_peer[9] 	lookupHopsSig:mean 	4.1006097560976
scalar Network.dyn_peer[10] 	lookupTimeSig:mean 	0.48754098360656
scalar Network.dyn_peer[10] 	lookupStabilitySig:mean 	0.45068306014186
scalar Network.dyn_peer[10] 	lookupHopsSig:mean 	4.4
scalar Network.dyn_peer[11] 	lookupTimeSig:mean 	0.50391459074733
scalar Network.dyn_peer[11] 	lookupStabilitySig:mean 	0.42694740999636
scalar Network.dyn_peer[11] 	lookupHopsSig:mean 	4.5871886120996
scalar Network.dyn_peer[12] 	lookupTimeSig:mean 	0.47542662116041
scalar Network.dyn_peer[12] 	lookupStabilitySig:mean 	0.46160409556314
scalar Network.dyn_peer[12] 	lookupHopsSig:mean 	4.3071672354949
scalar Network.dyn_peer[13] 	lookupTimeSig:mean 	0.45759493670886
scalar Network.dyn_peer[13] 	lookupStabilitySig:mean 	0.49226441630457
scalar Network.dyn_peer[13] 	lookupHopsSig:mean 	4.0632911392405
scalar Network.dyn_peer[14] 	lookupTimeSig:mean 	0.46312292358804
scalar Network.dyn_peer[14] 	lookupStabilitySig:mean 	0.48149686229981
scalar Network.dyn_peer[14] 	lookupHopsSig:mean 	4.1495016611296
scalar Network.dyn_peer[15] 	lookupTimeSig:mean 	0.46033333333333
scalar Network.dyn_peer[15] 	lookupStabilitySig:mean 	0.48685185184081
scalar Network.dyn_peer[15] 	lookupHopsSig:mean 	4.1066666666667
scalar Network.dyn_peer[16] 	lookupTimeSig:mean 	0.50851851851852
scalar Network.dyn_peer[16] 	lookupStabilitySig:mean 	0.42309670776681
scalar Network.dyn_peer[16] 	lookupHopsSig:mean 	4.6185185185185
scalar Network.dyn_peer[17] 	lookupTimeSig:mean 	0.46506849315069
scalar Network.dyn_peer[17] 	lookupStabilitySig:mean 	0.47536149161727
scalar Network.dyn_peer[17] 	lookupHopsSig:mean 	4.1986301369863
scalar Network.dyn_peer[18] 	lookupTimeSig:mean 	0.43354037267081
scalar Network.dyn_peer[18] 	lookupStabilitySig:mean 	0.51841787438585
scalar Network.dyn_peer[18] 	lookupHopsSig:mean 	3.8540372670807
scalar Network.dyn_peer[19] 	lookupTimeSig:mean 	0.46940063091483
scalar Network.dyn_peer[19] 	lookupStabilitySig:mean 	0.47577111803771
scalar Network.dyn_peer[19] 	lookupHopsSig:mean 	4.1955835962145
scalar Network.dyn_peer[20] 	lookupTimeSig:mean 	0.48300653594771
scalar Network.dyn_peer[20] 	lookupStabilitySig:mean 	0.46350762535349
scalar Network.dyn_peer[20] 	lookupHopsSig:mean 	4.3006535947712
scalar Network.dyn_peer[21] 	lookupTimeSig:mean 	0.50902527075812
scalar Network.dyn_peer[21] 	lookupStabilitySig:mean 	0.42057761732852
scalar Network.dyn_peer[21] 	lookupHopsSig:mean 	4.6389891696751
scalar Network.dyn_peer[22] 	lookupTimeSig:mean 	0.46384364820847
scalar Network.dyn_peer[22] 	lookupStabilitySig:mean 	0.48262757849227
scalar Network.dyn_peer[22] 	lookupHopsSig:mean 	4.1465798045603
scalar Network.dyn_peer[23] 	lookupTimeSig:mean 	0.46533333333333
scalar Network.dyn_peer[23] 	lookupStabilitySig:mean 	0.47560185184081
scalar Network.dyn_peer[23] 	lookupHopsSig:mean 	4.1966666666667
scalar Network.dyn_peer[24] 	lookupTimeSig:mean 	0.47251655629139
scalar Network.dyn_peer[24] 	lookupStabilitySig:mean 	0.47070456207391
scalar Network.dyn_peer[24] 	lookupHopsSig:mean 	4.2384105960265
scalar Network.dyn_peer[25] 	lookupTimeSig:mean 	0.48203389830508
scalar Network.dyn_peer[25] 	lookupStabilitySig:mean 	0.45748587568938
scalar Network.dyn_peer[25] 	lookupHopsSig:mean 	4.3457627118644
scalar Network.dyn_peer[26] 	lookupTimeSig:mean 	0.4741610738255
scalar Network.dyn_peer[26] 	lookupStabilitySig:mean 	0.47278150623577
scalar Network.dyn_peer[26] 	lookupHopsSig:mean 	4.2248322147651
scalar Network.dyn_peer[27] 	lookupTimeSig:mean 	0.426
scalar Network.dyn_peer[27] 	lookupStabilitySig:mean 	0.52916666666667
scalar Network.dyn_peer[27] 	lookupHopsSig:mean 	3.7666666666667
scalar Network.dyn_peer[28] 	lookupTimeSig:mean 	0.46894197952218
scalar Network.dyn_peer[28] 	lookupStabilitySig:mean 	0.47203261280629
scalar Network.dyn_peer[28] 	lookupHopsSig:mean 	4.2252559726962
scalar Network.dyn_peer[29] 	lookupTimeSig:mean 	0.46042402826855
scalar Network.dyn_peer[29] 	lookupStabilitySig:mean 	0.47958382390203
scalar Network.dyn_peer[29] 	lookupHopsSig:mean 	4.1731448763251
scalar Network.dyn_peer[30] 	lookupTimeSig:mean 	0.48214285714286
scalar Network.dyn_peer[30] 	lookupStabilitySig:mean 	0.45267857142857
scalar Network.dyn_peer[30] 	lookupHopsSig:mean 	4.3785714285714
scalar Network.dyn_peer[31] 	lookupTimeSig:mean 	0.43426791277259
scalar Network.dyn_peer[31] 	lookupStabilitySig:mean 	0.52821045341057
scalar Network.dyn_peer[31] 	lookupHopsSig:mean 	3.7788161993769
