version 2
run Stability-norelink-136-20130525-23:23:07-22103
attr configname Stability-norelink
attr datetime 20130525-23:23:07
attr experiment Stability
attr inifile omnetpp.ini
attr iterationvars $0=1e-7
attr iterationvars2 "$0=1e-7, $repetition=6"
attr measurement $0=1e-7
attr network Network
attr processid 22103
attr repetition 6
attr replication #6
attr resultdir results
attr runnumber 136
attr seedset 136

scalar Network.dyn_peer[0] 	lookupTimeSig:mean 	0.48519855595668
scalar Network.dyn_peer[0] 	lookupStabilitySig:mean 	0.45557561167096
scalar Network.dyn_peer[0] 	lookupHopsSig:mean 	4.3574007220217
scalar Network.dyn_peer[1] 	lookupTimeSig:mean 	0.45816993464052
scalar Network.dyn_peer[1] 	lookupStabilitySig:mean 	0.49264705882353
scalar Network.dyn_peer[1] 	lookupHopsSig:mean 	4.0588235294118
scalar Network.dyn_peer[2] 	lookupTimeSig:mean 	0.44249201277955
scalar Network.dyn_peer[2] 	lookupStabilitySig:mean 	0.50900780964202
scalar Network.dyn_peer[2] 	lookupHopsSig:mean 	3.9297124600639
scalar Network.dyn_peer[3] 	lookupTimeSig:mean 	0.51344827586207
scalar Network.dyn_peer[3] 	lookupStabilitySig:mean 	0.41005747117873
scalar Network.dyn_peer[3] 	lookupHopsSig:mean 	4.7241379310345
scalar Network.dyn_peer[4] 	lookupTimeSig:mean 	0.47884615384615
scalar Network.dyn_peer[4] 	lookupStabilitySig:mean 	0.45508368934194
scalar Network.dyn_peer[4] 	lookupHopsSig:mean 	4.3621794871795
scalar Network.dyn_peer[5] 	lookupTimeSig:mean 	0.45418060200669
scalar Network.dyn_peer[5] 	lookupStabilitySig:mean 	0.4945652173913
scalar Network.dyn_peer[5] 	lookupHopsSig:mean 	4.0434782608696
scalar Network.dyn_peer[6] 	lookupTimeSig:mean 	0.48701754385965
scalar Network.dyn_peer[6] 	lookupStabilitySig:mean 	0.45141325535481
scalar Network.dyn_peer[6] 	lookupHopsSig:mean 	4.3894736842105
scalar Network.dyn_peer[7] 	lookupTimeSig:mean 	0.46611295681063
scalar Network.dyn_peer[7] 	lookupStabilitySig:mean 	0.47965116291446
scalar Network.dyn_peer[7] 	lookupHopsSig:mean 	4.1694352159468
scalar Network.dyn_peer[8] 	lookupTimeSig:mean 	0.46940063091483
scalar Network.dyn_peer[8] 	lookupStabilitySig:mean 	0.47042586736687
scalar Network.dyn_peer[8] 	lookupHopsSig:mean 	4.2429022082019
scalar Network.dyn_peer[9] 	lookupTimeSig:mean 	0.47321428571429
scalar Network.dyn_peer[9] 	lookupStabilitySig:mean 	0.465625
scalar Network.dyn_peer[9] 	lookupHopsSig:mean 	4.275
scalar Network.dyn_peer[10] 	lookupTimeSig:mean 	0.46512455516014
scalar Network.dyn_peer[10] 	lookupStabilitySig:mean 	0.48512257805286
scalar Network.dyn_peer[10] 	lookupHopsSig:mean 	4.1209964412811
scalar Network.dyn_peer[11] 	lookupTimeSig:mean 	0.480276816609
scalar Network.dyn_peer[11] 	lookupStabilitySig:mean 	0.46025567089294
scalar Network.dyn_peer[11] 	lookupHopsSig:mean 	4.318339100346
scalar Network.dyn_peer[12] 	lookupTimeSig:mean 	0.47628865979381
scalar Network.dyn_peer[12] 	lookupStabilitySig:mean 	0.46243795337751
scalar Network.dyn_peer[12] 	lookupHopsSig:mean 	4.3024054982818
scalar Network.dyn_peer[13] 	lookupTimeSig:mean 	0.46810631229236
scalar Network.dyn_peer[13] 	lookupStabilitySig:mean 	0.47591362126246
scalar Network.dyn_peer[13] 	lookupHopsSig:mean 	4.1926910299003
scalar Network.dyn_peer[14] 	lookupTimeSig:mean 	0.4866220735786
scalar Network.dyn_peer[14] 	lookupStabilitySig:mean 	0.45443143812709
scalar Network.dyn_peer[14] 	lookupHopsSig:mean 	4.3645484949833
scalar Network.dyn_peer[15] 	lookupTimeSig:mean 	0.44983164983165
scalar Network.dyn_peer[15] 	lookupStabilitySig:mean 	0.5016835016835
scalar Network.dyn_peer[15] 	lookupHopsSig:mean 	3.986531986532
scalar Network.dyn_peer[16] 	lookupTimeSig:mean 	0.50567375886525
scalar Network.dyn_peer[16] 	lookupStabilitySig:mean 	0.42420212765957
scalar Network.dyn_peer[16] 	lookupHopsSig:mean 	4.6063829787234
scalar Network.dyn_peer[17] 	lookupTimeSig:mean 	0.46220735785953
scalar Network.dyn_peer[17] 	lookupStabilitySig:mean 	0.48411371237458
scalar Network.dyn_peer[17] 	lookupHopsSig:mean 	4.1270903010033
scalar Network.dyn_peer[18] 	lookupTimeSig:mean 	0.46822742474916
scalar Network.dyn_peer[18] 	lookupStabilitySig:mean 	0.47120029720973
scalar Network.dyn_peer[18] 	lookupHopsSig:mean 	4.2341137123746
scalar Network.dyn_peer[19] 	lookupTimeSig:mean 	0.48287671232877
scalar Network.dyn_peer[19] 	lookupStabilitySig:mean 	0.46161529669308
scalar Network.dyn_peer[19] 	lookupHopsSig:mean 	4.3116438356164
scalar Network.dyn_peer[20] 	lookupTimeSig:mean 	0.48450704225352
scalar Network.dyn_peer[20] 	lookupStabilitySig:mean 	0.45290492957746
scalar Network.dyn_peer[20] 	lookupHopsSig:mean 	4.3767605633803
scalar Network.dyn_peer[21] 	lookupTimeSig:mean 	0.44633333333333
scalar Network.dyn_peer[21] 	lookupStabilitySig:mean 	0.50731481472651
scalar Network.dyn_peer[21] 	lookupHopsSig:mean 	3.9466666666667
scalar Network.dyn_peer[22] 	lookupTimeSig:mean 	0.50547945205479
scalar Network.dyn_peer[22] 	lookupStabilitySig:mean 	0.42732115661445
scalar Network.dyn_peer[22] 	lookupHopsSig:mean 	4.5856164383562
scalar Network.dyn_peer[23] 	lookupTimeSig:mean 	0.45691318327974
scalar Network.dyn_peer[23] 	lookupStabilitySig:mean 	0.48713826359372
scalar Network.dyn_peer[23] 	lookupHopsSig:mean 	4.1061093247588
scalar Network.dyn_peer[24] 	lookupTimeSig:mean 	0.44542372881356
scalar Network.dyn_peer[24] 	lookupStabilitySig:mean 	0.51162900187201
scalar Network.dyn_peer[24] 	lookupHopsSig:mean 	3.9084745762712
scalar Network.dyn_peer[25] 	lookupTimeSig:mean 	0.45678233438486
scalar Network.dyn_peer[25] 	lookupStabilitySig:mean 	0.49145636169316
scalar Network.dyn_peer[25] 	lookupHopsSig:mean 	4.0694006309148
scalar Network.dyn_peer[26] 	lookupTimeSig:mean 	0.49965034965035
scalar Network.dyn_peer[26] 	lookupStabilitySig:mean 	0.4321581195597
scalar Network.dyn_peer[26] 	lookupHopsSig:mean 	4.5454545454545
scalar Network.dyn_peer[27] 	lookupTimeSig:mean 	0.45787878787879
scalar Network.dyn_peer[27] 	lookupStabilitySig:mean 	0.48905723905473
scalar Network.dyn_peer[27] 	lookupHopsSig:mean 	4.0878787878788
scalar Network.dyn_peer[28] 	lookupTimeSig:mean 	0.45729166666667
scalar Network.dyn_peer[28] 	lookupStabilitySig:mean 	0.49045138888889
scalar Network.dyn_peer[28] 	lookupHopsSig:mean 	4.0763888888889
scalar Network.dyn_peer[29] 	lookupTimeSig:mean 	0.50103806228374
scalar Network.dyn_peer[29] 	lookupStabilitySig:mean 	0.42656670510769
scalar Network.dyn_peer[29] 	lookupHopsSig:mean 	4.5882352941176
scalar Network.dyn_peer[30] 	lookupTimeSig:mean 	0.48421052631579
scalar Network.dyn_peer[30] 	lookupStabilitySig:mean 	0.45346003893697
scalar Network.dyn_peer[30] 	lookupHopsSig:mean 	4.3754385964912
scalar Network.dyn_peer[31] 	lookupTimeSig:mean 	0.4465625
scalar Network.dyn_peer[31] 	lookupStabilitySig:mean 	0.49852430555038
scalar Network.dyn_peer[31] 	lookupHopsSig:mean 	4.0125
