version 2
run Stability-norelink-70-20130525-23:18:39-22103
attr configname Stability-norelink
attr datetime 20130525-23:18:39
attr experiment Stability
attr inifile omnetpp.ini
attr iterationvars $0=1e-1
attr iterationvars2 "$0=1e-1, $repetition=0"
attr measurement $0=1e-1
attr network Network
attr processid 22103
attr repetition 0
attr replication #0
attr resultdir results
attr runnumber 70
attr seedset 70

scalar Network.dyn_peer[0] 	lookupTimeSig:mean 	0.4442996742671
scalar Network.dyn_peer[0] 	lookupStabilitySig:mean 	0.51330075995444
scalar Network.dyn_peer[0] 	lookupHopsSig:mean 	3.8957654723127
scalar Network.dyn_peer[1] 	lookupTimeSig:mean 	0.49635761589404
scalar Network.dyn_peer[1] 	lookupStabilitySig:mean 	0.4362582781457
scalar Network.dyn_peer[1] 	lookupHopsSig:mean 	4.5099337748344
scalar Network.dyn_peer[2] 	lookupTimeSig:mean 	0.48844884488449
scalar Network.dyn_peer[2] 	lookupStabilitySig:mean 	0.4485698569775
scalar Network.dyn_peer[2] 	lookupHopsSig:mean 	4.4125412541254
scalar Network.dyn_peer[3] 	lookupTimeSig:mean 	0.49028776978417
scalar Network.dyn_peer[3] 	lookupStabilitySig:mean 	0.45193844905003
scalar Network.dyn_peer[3] 	lookupHopsSig:mean 	4.3884892086331
scalar Network.dyn_peer[4] 	lookupTimeSig:mean 	0.48105263157895
scalar Network.dyn_peer[4] 	lookupStabilitySig:mean 	0.4605263156849
scalar Network.dyn_peer[4] 	lookupHopsSig:mean 	4.319298245614
scalar Network.dyn_peer[5] 	lookupTimeSig:mean 	0.45972696245734
scalar Network.dyn_peer[5] 	lookupStabilitySig:mean 	0.48596890392767
scalar Network.dyn_peer[5] 	lookupHopsSig:mean 	4.1160409556314
scalar Network.dyn_peer[6] 	lookupTimeSig:mean 	0.51915584415584
scalar Network.dyn_peer[6] 	lookupStabilitySig:mean 	0.40909090909091
scalar Network.dyn_peer[6] 	lookupHopsSig:mean 	4.7272727272727
scalar Network.dyn_peer[7] 	lookupTimeSig:mean 	0.4695652173913
scalar Network.dyn_peer[7] 	lookupStabilitySig:mean 	0.47672798212954
scalar Network.dyn_peer[7] 	lookupHopsSig:mean 	4.1872909698997
scalar Network.dyn_peer[8] 	lookupTimeSig:mean 	0.46421404682274
scalar Network.dyn_peer[8] 	lookupStabilitySig:mean 	0.48536789297659
scalar Network.dyn_peer[8] 	lookupHopsSig:mean 	4.1170568561873
scalar Network.dyn_peer[9] 	lookupTimeSig:mean 	0.47857142857143
scalar Network.dyn_peer[9] 	lookupStabilitySig:mean 	0.45962301569858
scalar Network.dyn_peer[9] 	lookupHopsSig:mean 	4.3285714285714
scalar Network.dyn_peer[10] 	lookupTimeSig:mean 	0.44887459807074
scalar Network.dyn_peer[10] 	lookupStabilitySig:mean 	0.49548946035924
scalar Network.dyn_peer[10] 	lookupHopsSig:mean 	4.0418006430868
scalar Network.dyn_peer[11] 	lookupTimeSig:mean 	0.49222614840989
scalar Network.dyn_peer[11] 	lookupStabilitySig:mean 	0.44292304646421
scalar Network.dyn_peer[11] 	lookupHopsSig:mean 	4.4628975265018
scalar Network.dyn_peer[12] 	lookupTimeSig:mean 	0.47205387205387
scalar Network.dyn_peer[12] 	lookupStabilitySig:mean 	0.46894874672095
scalar Network.dyn_peer[12] 	lookupHopsSig:mean 	4.2491582491582
scalar Network.dyn_peer[13] 	lookupTimeSig:mean 	0.48088737201365
scalar Network.dyn_peer[13] 	lookupStabilitySig:mean 	0.4462457337884
scalar Network.dyn_peer[13] 	lookupHopsSig:mean 	4.4300341296928
scalar Network.dyn_peer[14] 	lookupTimeSig:mean 	0.4848275862069
scalar Network.dyn_peer[14] 	lookupStabilitySig:mean 	0.45244252866712
scalar Network.dyn_peer[14] 	lookupHopsSig:mean 	4.3827586206897
scalar Network.dyn_peer[15] 	lookupTimeSig:mean 	0.46858974358974
scalar Network.dyn_peer[15] 	lookupStabilitySig:mean 	0.47499999996179
scalar Network.dyn_peer[15] 	lookupHopsSig:mean 	4.2051282051282
scalar Network.dyn_peer[16] 	lookupTimeSig:mean 	0.47561728395062
scalar Network.dyn_peer[16] 	lookupStabilitySig:mean 	0.47809499313618
scalar Network.dyn_peer[16] 	lookupHopsSig:mean 	4.1759259259259
scalar Network.dyn_peer[17] 	lookupTimeSig:mean 	0.50034364261168
scalar Network.dyn_peer[17] 	lookupStabilitySig:mean 	0.42926689575321
scalar Network.dyn_peer[17] 	lookupHopsSig:mean 	4.5670103092784
scalar Network.dyn_peer[18] 	lookupTimeSig:mean 	0.46744186046512
scalar Network.dyn_peer[18] 	lookupStabilitySig:mean 	0.47748246576105
scalar Network.dyn_peer[18] 	lookupHopsSig:mean 	4.1827242524917
scalar Network.dyn_peer[19] 	lookupTimeSig:mean 	0.5021897810219
scalar Network.dyn_peer[19] 	lookupStabilitySig:mean 	0.43177210055564
scalar Network.dyn_peer[19] 	lookupHopsSig:mean 	4.5474452554745
scalar Network.dyn_peer[20] 	lookupTimeSig:mean 	0.46793103448276
scalar Network.dyn_peer[20] 	lookupStabilitySig:mean 	0.48180076623785
scalar Network.dyn_peer[20] 	lookupHopsSig:mean 	4.148275862069
scalar Network.dyn_peer[21] 	lookupTimeSig:mean 	0.49219330855019
scalar Network.dyn_peer[21] 	lookupStabilitySig:mean 	0.43928128868674
scalar Network.dyn_peer[21] 	lookupHopsSig:mean 	4.4869888475836
scalar Network.dyn_peer[22] 	lookupTimeSig:mean 	0.49721254355401
scalar Network.dyn_peer[22] 	lookupStabilitySig:mean 	0.43960511025028
scalar Network.dyn_peer[22] 	lookupHopsSig:mean 	4.4878048780488
scalar Network.dyn_peer[23] 	lookupTimeSig:mean 	0.48740740740741
scalar Network.dyn_peer[23] 	lookupStabilitySig:mean 	0.44259259259259
scalar Network.dyn_peer[23] 	lookupHopsSig:mean 	4.4592592592593
scalar Network.dyn_peer[24] 	lookupTimeSig:mean 	0.47482993197279
scalar Network.dyn_peer[24] 	lookupStabilitySig:mean 	0.46612811790538
scalar Network.dyn_peer[24] 	lookupHopsSig:mean 	4.2721088435374
scalar Network.dyn_peer[25] 	lookupTimeSig:mean 	0.46850649350649
scalar Network.dyn_peer[25] 	lookupStabilitySig:mean 	0.47091450213225
scalar Network.dyn_peer[25] 	lookupHopsSig:mean 	4.2337662337662
scalar Network.dyn_peer[26] 	lookupTimeSig:mean 	0.49278350515464
scalar Network.dyn_peer[26] 	lookupStabilitySig:mean 	0.44043528053052
scalar Network.dyn_peer[26] 	lookupHopsSig:mean 	4.4810996563574
scalar Network.dyn_peer[27] 	lookupTimeSig:mean 	0.44855305466238
scalar Network.dyn_peer[27] 	lookupStabilitySig:mean 	0.49316720233278
scalar Network.dyn_peer[27] 	lookupHopsSig:mean 	4.064308681672
scalar Network.dyn_peer[28] 	lookupTimeSig:mean 	0.48770764119601
scalar Network.dyn_peer[28] 	lookupStabilitySig:mean 	0.4525193797542
scalar Network.dyn_peer[28] 	lookupHopsSig:mean 	4.3853820598007
scalar Network.dyn_peer[29] 	lookupTimeSig:mean 	0.48146853146853
scalar Network.dyn_peer[29] 	lookupStabilitySig:mean 	0.44959207449655
scalar Network.dyn_peer[29] 	lookupHopsSig:mean 	4.4055944055944
scalar Network.dyn_peer[30] 	lookupTimeSig:mean 	0.47017543859649
scalar Network.dyn_peer[30] 	lookupStabilitySig:mean 	0.46988304090082
scalar Network.dyn_peer[30] 	lookupHopsSig:mean 	4.2421052631579
scalar Network.dyn_peer[31] 	lookupTimeSig:mean 	0.4582554517134
scalar Network.dyn_peer[31] 	lookupStabilitySig:mean 	0.49671166492307
scalar Network.dyn_peer[31] 	lookupHopsSig:mean 	4.0280373831776
