version 2
run Stability-norelink-130-20130525-23:22:43-22103
attr configname Stability-norelink
attr datetime 20130525-23:22:43
attr experiment Stability
attr inifile omnetpp.ini
attr iterationvars $0=1e-7
attr iterationvars2 "$0=1e-7, $repetition=0"
attr measurement $0=1e-7
attr network Network
attr processid 22103
attr repetition 0
attr replication #0
attr resultdir results
attr runnumber 130
attr seedset 130

scalar Network.dyn_peer[0] 	lookupTimeSig:mean 	0.52335766423358
scalar Network.dyn_peer[0] 	lookupStabilitySig:mean 	0.40490673145238
scalar Network.dyn_peer[0] 	lookupHopsSig:mean 	4.7627737226277
scalar Network.dyn_peer[1] 	lookupTimeSig:mean 	0.45763239875389
scalar Network.dyn_peer[1] 	lookupStabilitySig:mean 	0.49147628920843
scalar Network.dyn_peer[1] 	lookupHopsSig:mean 	4.0716510903427
scalar Network.dyn_peer[2] 	lookupTimeSig:mean 	0.45756578947368
scalar Network.dyn_peer[2] 	lookupStabilitySig:mean 	0.48108552631579
scalar Network.dyn_peer[2] 	lookupHopsSig:mean 	4.1513157894737
scalar Network.dyn_peer[3] 	lookupTimeSig:mean 	0.43803680981595
scalar Network.dyn_peer[3] 	lookupStabilitySig:mean 	0.51938479882808
scalar Network.dyn_peer[3] 	lookupHopsSig:mean 	3.8466257668712
scalar Network.dyn_peer[4] 	lookupTimeSig:mean 	0.46818181818182
scalar Network.dyn_peer[4] 	lookupStabilitySig:mean 	0.48029401153326
scalar Network.dyn_peer[4] 	lookupHopsSig:mean 	4.1590909090909
scalar Network.dyn_peer[5] 	lookupTimeSig:mean 	0.48645161290323
scalar Network.dyn_peer[5] 	lookupStabilitySig:mean 	0.45788530457404
scalar Network.dyn_peer[5] 	lookupHopsSig:mean 	4.3387096774194
scalar Network.dyn_peer[6] 	lookupTimeSig:mean 	0.45342465753425
scalar Network.dyn_peer[6] 	lookupStabilitySig:mean 	0.49315068493151
scalar Network.dyn_peer[6] 	lookupHopsSig:mean 	4.0547945205479
scalar Network.dyn_peer[7] 	lookupTimeSig:mean 	0.47094594594595
scalar Network.dyn_peer[7] 	lookupStabilitySig:mean 	0.47287912908438
scalar Network.dyn_peer[7] 	lookupHopsSig:mean 	4.2195945945946
scalar Network.dyn_peer[8] 	lookupTimeSig:mean 	0.47533783783784
scalar Network.dyn_peer[8] 	lookupStabilitySig:mean 	0.45922484968764
scalar Network.dyn_peer[8] 	lookupHopsSig:mean 	4.3310810810811
scalar Network.dyn_peer[9] 	lookupTimeSig:mean 	0.47298245614035
scalar Network.dyn_peer[9] 	lookupStabilitySig:mean 	0.4708576997644
scalar Network.dyn_peer[9] 	lookupHopsSig:mean 	4.2350877192982
scalar Network.dyn_peer[10] 	lookupTimeSig:mean 	0.49115646258503
scalar Network.dyn_peer[10] 	lookupStabilitySig:mean 	0.44916855635083
scalar Network.dyn_peer[10] 	lookupHopsSig:mean 	4.4183673469388
scalar Network.dyn_peer[11] 	lookupTimeSig:mean 	0.4682119205298
scalar Network.dyn_peer[11] 	lookupStabilitySig:mean 	0.47806291390728
scalar Network.dyn_peer[11] 	lookupHopsSig:mean 	4.1754966887417
scalar Network.dyn_peer[12] 	lookupTimeSig:mean 	0.47838827838828
scalar Network.dyn_peer[12] 	lookupStabilitySig:mean 	0.46026658526052
scalar Network.dyn_peer[12] 	lookupHopsSig:mean 	4.3186813186813
scalar Network.dyn_peer[13] 	lookupTimeSig:mean 	0.48237410071942
scalar Network.dyn_peer[13] 	lookupStabilitySig:mean 	0.45933253393113
scalar Network.dyn_peer[13] 	lookupHopsSig:mean 	4.3273381294964
scalar Network.dyn_peer[14] 	lookupTimeSig:mean 	0.43824451410658
scalar Network.dyn_peer[14] 	lookupStabilitySig:mean 	0.51802507829984
scalar Network.dyn_peer[14] 	lookupHopsSig:mean 	3.858934169279
scalar Network.dyn_peer[15] 	lookupTimeSig:mean 	0.44600638977636
scalar Network.dyn_peer[15] 	lookupStabilitySig:mean 	0.50523606673502
scalar Network.dyn_peer[15] 	lookupHopsSig:mean 	3.9584664536741
scalar Network.dyn_peer[16] 	lookupTimeSig:mean 	0.43899371069182
scalar Network.dyn_peer[16] 	lookupStabilitySig:mean 	0.51109364080542
scalar Network.dyn_peer[16] 	lookupHopsSig:mean 	3.9119496855346
scalar Network.dyn_peer[17] 	lookupTimeSig:mean 	0.48920634920635
scalar Network.dyn_peer[17] 	lookupStabilitySig:mean 	0.44484126984127
scalar Network.dyn_peer[17] 	lookupHopsSig:mean 	4.4412698412698
scalar Network.dyn_peer[18] 	lookupTimeSig:mean 	0.4878892733564
scalar Network.dyn_peer[18] 	lookupStabilitySig:mean 	0.44920222987147
scalar Network.dyn_peer[18] 	lookupHopsSig:mean 	4.4117647058824
scalar Network.dyn_peer[19] 	lookupTimeSig:mean 	0.45083612040134
scalar Network.dyn_peer[19] 	lookupStabilitySig:mean 	0.49321813447818
scalar Network.dyn_peer[19] 	lookupHopsSig:mean 	4.056856187291
scalar Network.dyn_peer[20] 	lookupTimeSig:mean 	0.46993243243243
scalar Network.dyn_peer[20] 	lookupStabilitySig:mean 	0.47161223719249
scalar Network.dyn_peer[20] 	lookupHopsSig:mean 	4.2297297297297
scalar Network.dyn_peer[21] 	lookupTimeSig:mean 	0.43433734939759
scalar Network.dyn_peer[21] 	lookupStabilitySig:mean 	0.52585341359477
scalar Network.dyn_peer[21] 	lookupHopsSig:mean 	3.7951807228916
scalar Network.dyn_peer[22] 	lookupTimeSig:mean 	0.47508417508418
scalar Network.dyn_peer[22] 	lookupStabilitySig:mean 	0.46464646464646
scalar Network.dyn_peer[22] 	lookupHopsSig:mean 	4.2828282828283
scalar Network.dyn_peer[23] 	lookupTimeSig:mean 	0.45700325732899
scalar Network.dyn_peer[23] 	lookupStabilitySig:mean 	0.49981903726484
scalar Network.dyn_peer[23] 	lookupHopsSig:mean 	4.0032573289902
scalar Network.dyn_peer[24] 	lookupTimeSig:mean 	0.46279069767442
scalar Network.dyn_peer[24] 	lookupStabilitySig:mean 	0.48394241414197
scalar Network.dyn_peer[24] 	lookupHopsSig:mean 	4.1295681063123
scalar Network.dyn_peer[25] 	lookupTimeSig:mean 	0.48322147651007
scalar Network.dyn_peer[25] 	lookupStabilitySig:mean 	0.44840604026846
scalar Network.dyn_peer[25] 	lookupHopsSig:mean 	4.4127516778523
scalar Network.dyn_peer[26] 	lookupTimeSig:mean 	0.44248554913295
scalar Network.dyn_peer[26] 	lookupStabilitySig:mean 	0.51095857415241
scalar Network.dyn_peer[26] 	lookupHopsSig:mean 	3.9132947976879
scalar Network.dyn_peer[27] 	lookupTimeSig:mean 	0.47849829351536
scalar Network.dyn_peer[27] 	lookupStabilitySig:mean 	0.45719567681234
scalar Network.dyn_peer[27] 	lookupHopsSig:mean 	4.3447098976109
scalar Network.dyn_peer[28] 	lookupTimeSig:mean 	0.46780821917808
scalar Network.dyn_peer[28] 	lookupStabilitySig:mean 	0.4744101978124
scalar Network.dyn_peer[28] 	lookupHopsSig:mean 	4.208904109589
scalar Network.dyn_peer[29] 	lookupTimeSig:mean 	0.50881355932203
scalar Network.dyn_peer[29] 	lookupStabilitySig:mean 	0.41779661016949
scalar Network.dyn_peer[29] 	lookupHopsSig:mean 	4.6576271186441
scalar Network.dyn_peer[30] 	lookupTimeSig:mean 	0.44366666666667
scalar Network.dyn_peer[30] 	lookupStabilitySig:mean 	0.50972222208977
scalar Network.dyn_peer[30] 	lookupHopsSig:mean 	3.9266666666667
scalar Network.dyn_peer[31] 	lookupTimeSig:mean 	0.47190635451505
scalar Network.dyn_peer[31] 	lookupStabilitySig:mean 	0.4625139353068
scalar Network.dyn_peer[31] 	lookupHopsSig:mean 	4.304347826087
