version 2
run Stability-norelink-90-20130525-23:20:00-22103
attr configname Stability-norelink
attr datetime 20130525-23:20:00
attr experiment Stability
attr inifile omnetpp.ini
attr iterationvars $0=1e-3
attr iterationvars2 "$0=1e-3, $repetition=0"
attr measurement $0=1e-3
attr network Network
attr processid 22103
attr repetition 0
attr replication #0
attr resultdir results
attr runnumber 90
attr seedset 90

scalar Network.dyn_peer[0] 	lookupTimeSig:mean 	0.46211604095563
scalar Network.dyn_peer[0] 	lookupStabilitySig:mean 	0.48506825938567
scalar Network.dyn_peer[0] 	lookupHopsSig:mean 	4.1194539249147
scalar Network.dyn_peer[1] 	lookupTimeSig:mean 	0.46315789473684
scalar Network.dyn_peer[1] 	lookupStabilitySig:mean 	0.48478618421053
scalar Network.dyn_peer[1] 	lookupHopsSig:mean 	4.1217105263158
scalar Network.dyn_peer[2] 	lookupTimeSig:mean 	0.45876623376623
scalar Network.dyn_peer[2] 	lookupStabilitySig:mean 	0.48588564196094
scalar Network.dyn_peer[2] 	lookupHopsSig:mean 	4.1168831168831
scalar Network.dyn_peer[3] 	lookupTimeSig:mean 	0.48484848484849
scalar Network.dyn_peer[3] 	lookupStabilitySig:mean 	0.45258136921459
scalar Network.dyn_peer[3] 	lookupHopsSig:mean 	4.3804713804714
scalar Network.dyn_peer[4] 	lookupTimeSig:mean 	0.43018867924528
scalar Network.dyn_peer[4] 	lookupStabilitySig:mean 	0.52751572327044
scalar Network.dyn_peer[4] 	lookupHopsSig:mean 	3.7798742138365
scalar Network.dyn_peer[5] 	lookupTimeSig:mean 	0.46891891891892
scalar Network.dyn_peer[5] 	lookupStabilitySig:mean 	0.47100225221869
scalar Network.dyn_peer[5] 	lookupHopsSig:mean 	4.2331081081081
scalar Network.dyn_peer[6] 	lookupTimeSig:mean 	0.48035087719298
scalar Network.dyn_peer[6] 	lookupStabilitySig:mean 	0.45667641324955
scalar Network.dyn_peer[6] 	lookupHopsSig:mean 	4.3473684210526
scalar Network.dyn_peer[7] 	lookupTimeSig:mean 	0.46508474576271
scalar Network.dyn_peer[7] 	lookupStabilitySig:mean 	0.47820150652679
scalar Network.dyn_peer[7] 	lookupHopsSig:mean 	4.1796610169492
scalar Network.dyn_peer[8] 	lookupTimeSig:mean 	0.46267123287671
scalar Network.dyn_peer[8] 	lookupStabilitySig:mean 	0.4800703956248
scalar Network.dyn_peer[8] 	lookupHopsSig:mean 	4.1643835616438
scalar Network.dyn_peer[9] 	lookupTimeSig:mean 	0.49230769230769
scalar Network.dyn_peer[9] 	lookupStabilitySig:mean 	0.43881118881119
scalar Network.dyn_peer[9] 	lookupHopsSig:mean 	4.4895104895105
scalar Network.dyn_peer[10] 	lookupTimeSig:mean 	0.45973597359736
scalar Network.dyn_peer[10] 	lookupStabilitySig:mean 	0.4851026769125
scalar Network.dyn_peer[10] 	lookupHopsSig:mean 	4.1221122112211
scalar Network.dyn_peer[11] 	lookupTimeSig:mean 	0.43525641025641
scalar Network.dyn_peer[11] 	lookupStabilitySig:mean 	0.51883012820513
scalar Network.dyn_peer[11] 	lookupHopsSig:mean 	3.849358974359
scalar Network.dyn_peer[12] 	lookupTimeSig:mean 	0.46021126760563
scalar Network.dyn_peer[12] 	lookupStabilitySig:mean 	0.48987676056338
scalar Network.dyn_peer[12] 	lookupHopsSig:mean 	4.080985915493
scalar Network.dyn_peer[13] 	lookupTimeSig:mean 	0.47595818815331
scalar Network.dyn_peer[13] 	lookupStabilitySig:mean 	0.46573751443147
scalar Network.dyn_peer[13] 	lookupHopsSig:mean 	4.2787456445993
scalar Network.dyn_peer[14] 	lookupTimeSig:mean 	0.43061889250814
scalar Network.dyn_peer[14] 	lookupStabilitySig:mean 	0.52171552659343
scalar Network.dyn_peer[14] 	lookupHopsSig:mean 	3.8273615635179
scalar Network.dyn_peer[15] 	lookupTimeSig:mean 	0.46835016835017
scalar Network.dyn_peer[15] 	lookupStabilitySig:mean 	0.47965768792412
scalar Network.dyn_peer[15] 	lookupHopsSig:mean 	4.1649831649832
scalar Network.dyn_peer[16] 	lookupTimeSig:mean 	0.48673469387755
scalar Network.dyn_peer[16] 	lookupStabilitySig:mean 	0.45200302342878
scalar Network.dyn_peer[16] 	lookupHopsSig:mean 	4.3843537414966
scalar Network.dyn_peer[17] 	lookupTimeSig:mean 	0.46597222222222
scalar Network.dyn_peer[17] 	lookupStabilitySig:mean 	0.48418209867345
scalar Network.dyn_peer[17] 	lookupHopsSig:mean 	4.1284722222222
scalar Network.dyn_peer[18] 	lookupTimeSig:mean 	0.46771929824561
scalar Network.dyn_peer[18] 	lookupStabilitySig:mean 	0.47441520466093
scalar Network.dyn_peer[18] 	lookupHopsSig:mean 	4.2070175438596
scalar Network.dyn_peer[19] 	lookupTimeSig:mean 	0.45639344262295
scalar Network.dyn_peer[19] 	lookupStabilitySig:mean 	0.48114754098361
scalar Network.dyn_peer[19] 	lookupHopsSig:mean 	4.1508196721311
scalar Network.dyn_peer[20] 	lookupTimeSig:mean 	0.47350993377483
scalar Network.dyn_peer[20] 	lookupStabilitySig:mean 	0.47456769684687
scalar Network.dyn_peer[20] 	lookupHopsSig:mean 	4.2086092715232
scalar Network.dyn_peer[21] 	lookupTimeSig:mean 	0.45960912052117
scalar Network.dyn_peer[21] 	lookupStabilitySig:mean 	0.48498009409792
scalar Network.dyn_peer[21] 	lookupHopsSig:mean 	4.1205211726384
scalar Network.dyn_peer[22] 	lookupTimeSig:mean 	0.4257328990228
scalar Network.dyn_peer[22] 	lookupStabilitySig:mean 	0.53135179143387
scalar Network.dyn_peer[22] 	lookupHopsSig:mean 	3.7524429967427
scalar Network.dyn_peer[23] 	lookupTimeSig:mean 	0.43513513513514
scalar Network.dyn_peer[23] 	lookupStabilitySig:mean 	0.52515015006065
scalar Network.dyn_peer[23] 	lookupHopsSig:mean 	3.8006756756757
scalar Network.dyn_peer[24] 	lookupTimeSig:mean 	0.44198717948718
scalar Network.dyn_peer[24] 	lookupStabilitySig:mean 	0.51753917374672
scalar Network.dyn_peer[24] 	lookupHopsSig:mean 	3.8621794871795
scalar Network.dyn_peer[25] 	lookupTimeSig:mean 	0.45079872204473
scalar Network.dyn_peer[25] 	lookupStabilitySig:mean 	0.49884629021057
scalar Network.dyn_peer[25] 	lookupHopsSig:mean 	4.0159744408946
scalar Network.dyn_peer[26] 	lookupTimeSig:mean 	0.47483870967742
scalar Network.dyn_peer[26] 	lookupStabilitySig:mean 	0.46388888887821
scalar Network.dyn_peer[26] 	lookupHopsSig:mean 	4.2903225806452
scalar Network.dyn_peer[27] 	lookupTimeSig:mean 	0.47809187279152
scalar Network.dyn_peer[27] 	lookupStabilitySig:mean 	0.45951118959976
scalar Network.dyn_peer[27] 	lookupHopsSig:mean 	4.3250883392226
scalar Network.dyn_peer[28] 	lookupTimeSig:mean 	0.47315436241611
scalar Network.dyn_peer[28] 	lookupStabilitySig:mean 	0.46937919463087
scalar Network.dyn_peer[28] 	lookupHopsSig:mean 	4.244966442953
scalar Network.dyn_peer[29] 	lookupTimeSig:mean 	0.46561403508772
scalar Network.dyn_peer[29] 	lookupStabilitySig:mean 	0.47105263157895
scalar Network.dyn_peer[29] 	lookupHopsSig:mean 	4.2315789473684
scalar Network.dyn_peer[30] 	lookupTimeSig:mean 	0.47789473684211
scalar Network.dyn_peer[30] 	lookupStabilitySig:mean 	0.46998050672966
scalar Network.dyn_peer[30] 	lookupHopsSig:mean 	4.2421052631579
scalar Network.dyn_peer[31] 	lookupTimeSig:mean 	0.44984126984127
scalar Network.dyn_peer[31] 	lookupStabilitySig:mean 	0.5047619047619
scalar Network.dyn_peer[31] 	lookupHopsSig:mean 	3.9619047619048
