version 2
run Stability-norelink-123-20130525-23:22:15-22103
attr configname Stability-norelink
attr datetime 20130525-23:22:15
attr experiment Stability
attr inifile omnetpp.ini
attr iterationvars $0=1e-6
attr iterationvars2 "$0=1e-6, $repetition=3"
attr measurement $0=1e-6
attr network Network
attr processid 22103
attr repetition 3
attr replication #3
attr resultdir results
attr runnumber 123
attr seedset 123

scalar Network.dyn_peer[0] 	lookupTimeSig:mean 	0.47689655172414
scalar Network.dyn_peer[0] 	lookupStabilitySig:mean 	0.46120689655172
scalar Network.dyn_peer[0] 	lookupHopsSig:mean 	4.3103448275862
scalar Network.dyn_peer[1] 	lookupTimeSig:mean 	0.46554054054054
scalar Network.dyn_peer[1] 	lookupStabilitySig:mean 	0.47949512010893
scalar Network.dyn_peer[1] 	lookupHopsSig:mean 	4.1655405405405
scalar Network.dyn_peer[2] 	lookupTimeSig:mean 	0.46983050847458
scalar Network.dyn_peer[2] 	lookupStabilitySig:mean 	0.47000941619024
scalar Network.dyn_peer[2] 	lookupHopsSig:mean 	4.2406779661017
scalar Network.dyn_peer[3] 	lookupTimeSig:mean 	0.44852071005917
scalar Network.dyn_peer[3] 	lookupStabilitySig:mean 	0.50719099266995
scalar Network.dyn_peer[3] 	lookupHopsSig:mean 	3.9467455621302
scalar Network.dyn_peer[4] 	lookupTimeSig:mean 	0.47040816326531
scalar Network.dyn_peer[4] 	lookupStabilitySig:mean 	0.47425359011102
scalar Network.dyn_peer[4] 	lookupHopsSig:mean 	4.2108843537415
scalar Network.dyn_peer[5] 	lookupTimeSig:mean 	0.4755033557047
scalar Network.dyn_peer[5] 	lookupStabilitySig:mean 	0.45721476510067
scalar Network.dyn_peer[5] 	lookupHopsSig:mean 	4.3422818791946
scalar Network.dyn_peer[6] 	lookupTimeSig:mean 	0.48265306122449
scalar Network.dyn_peer[6] 	lookupStabilitySig:mean 	0.45365646258503
scalar Network.dyn_peer[6] 	lookupHopsSig:mean 	4.3775510204082
scalar Network.dyn_peer[7] 	lookupTimeSig:mean 	0.45579937304075
scalar Network.dyn_peer[7] 	lookupStabilitySig:mean 	0.4938610240023
scalar Network.dyn_peer[7] 	lookupHopsSig:mean 	4.0501567398119
scalar Network.dyn_peer[8] 	lookupTimeSig:mean 	0.45196078431373
scalar Network.dyn_peer[8] 	lookupStabilitySig:mean 	0.50040849673203
scalar Network.dyn_peer[8] 	lookupHopsSig:mean 	3.9967320261438
scalar Network.dyn_peer[9] 	lookupTimeSig:mean 	0.46153846153846
scalar Network.dyn_peer[9] 	lookupStabilitySig:mean 	0.48776223776224
scalar Network.dyn_peer[9] 	lookupHopsSig:mean 	4.0979020979021
scalar Network.dyn_peer[10] 	lookupTimeSig:mean 	0.45243055555556
scalar Network.dyn_peer[10] 	lookupStabilitySig:mean 	0.49479166666667
scalar Network.dyn_peer[10] 	lookupHopsSig:mean 	4.0416666666667
scalar Network.dyn_peer[11] 	lookupTimeSig:mean 	0.47133757961783
scalar Network.dyn_peer[11] 	lookupStabilitySig:mean 	0.4781050955414
scalar Network.dyn_peer[11] 	lookupHopsSig:mean 	4.1751592356688
scalar Network.dyn_peer[12] 	lookupTimeSig:mean 	0.4862676056338
scalar Network.dyn_peer[12] 	lookupStabilitySig:mean 	0.44190140834577
scalar Network.dyn_peer[12] 	lookupHopsSig:mean 	4.4683098591549
scalar Network.dyn_peer[13] 	lookupTimeSig:mean 	0.4963768115942
scalar Network.dyn_peer[13] 	lookupStabilitySig:mean 	0.42934782608696
scalar Network.dyn_peer[13] 	lookupHopsSig:mean 	4.5652173913043
scalar Network.dyn_peer[14] 	lookupTimeSig:mean 	0.45372670807453
scalar Network.dyn_peer[14] 	lookupStabilitySig:mean 	0.49672187712067
scalar Network.dyn_peer[14] 	lookupHopsSig:mean 	4.027950310559
scalar Network.dyn_peer[15] 	lookupTimeSig:mean 	0.43269841269841
scalar Network.dyn_peer[15] 	lookupStabilitySig:mean 	0.5151234567875
scalar Network.dyn_peer[15] 	lookupHopsSig:mean 	3.8793650793651
scalar Network.dyn_peer[16] 	lookupTimeSig:mean 	0.50451388888889
scalar Network.dyn_peer[16] 	lookupStabilitySig:mean 	0.43451003086132
scalar Network.dyn_peer[16] 	lookupHopsSig:mean 	4.5243055555556
scalar Network.dyn_peer[17] 	lookupTimeSig:mean 	0.47509157509158
scalar Network.dyn_peer[17] 	lookupStabilitySig:mean 	0.46179283675038
scalar Network.dyn_peer[17] 	lookupHopsSig:mean 	4.3076923076923
scalar Network.dyn_peer[18] 	lookupTimeSig:mean 	0.47184466019417
scalar Network.dyn_peer[18] 	lookupStabilitySig:mean 	0.47473930232347
scalar Network.dyn_peer[18] 	lookupHopsSig:mean 	4.2038834951456
scalar Network.dyn_peer[19] 	lookupTimeSig:mean 	0.45340136054422
scalar Network.dyn_peer[19] 	lookupStabilitySig:mean 	0.49489795918367
scalar Network.dyn_peer[19] 	lookupHopsSig:mean 	4.0408163265306
scalar Network.dyn_peer[20] 	lookupTimeSig:mean 	0.45761589403974
scalar Network.dyn_peer[20] 	lookupStabilitySig:mean 	0.48551324503311
scalar Network.dyn_peer[20] 	lookupHopsSig:mean 	4.1158940397351
scalar Network.dyn_peer[21] 	lookupTimeSig:mean 	0.48014184397163
scalar Network.dyn_peer[21] 	lookupStabilitySig:mean 	0.46266745464176
scalar Network.dyn_peer[21] 	lookupHopsSig:mean 	4.3014184397163
scalar Network.dyn_peer[22] 	lookupTimeSig:mean 	0.45162337662338
scalar Network.dyn_peer[22] 	lookupStabilitySig:mean 	0.49246933618439
scalar Network.dyn_peer[22] 	lookupHopsSig:mean 	4.0616883116883
scalar Network.dyn_peer[23] 	lookupTimeSig:mean 	0.45907590759076
scalar Network.dyn_peer[23] 	lookupStabilitySig:mean 	0.48817381734895
scalar Network.dyn_peer[23] 	lookupHopsSig:mean 	4.0957095709571
scalar Network.dyn_peer[24] 	lookupTimeSig:mean 	0.45787671232877
scalar Network.dyn_peer[24] 	lookupStabilitySig:mean 	0.48458904109589
scalar Network.dyn_peer[24] 	lookupHopsSig:mean 	4.1232876712329
scalar Network.dyn_peer[25] 	lookupTimeSig:mean 	0.47198697068404
scalar Network.dyn_peer[25] 	lookupStabilitySig:mean 	0.46946254071661
scalar Network.dyn_peer[25] 	lookupHopsSig:mean 	4.2442996742671
scalar Network.dyn_peer[26] 	lookupTimeSig:mean 	0.44969325153374
scalar Network.dyn_peer[26] 	lookupStabilitySig:mean 	0.50366393997808
scalar Network.dyn_peer[26] 	lookupHopsSig:mean 	3.9723926380368
scalar Network.dyn_peer[27] 	lookupTimeSig:mean 	0.49677419354839
scalar Network.dyn_peer[27] 	lookupStabilitySig:mean 	0.43518518514958
scalar Network.dyn_peer[27] 	lookupHopsSig:mean 	4.5197132616487
scalar Network.dyn_peer[28] 	lookupTimeSig:mean 	0.49148148148148
scalar Network.dyn_peer[28] 	lookupStabilitySig:mean 	0.44603909463794
scalar Network.dyn_peer[28] 	lookupHopsSig:mean 	4.4333333333333
scalar Network.dyn_peer[29] 	lookupTimeSig:mean 	0.47027027027027
scalar Network.dyn_peer[29] 	lookupStabilitySig:mean 	0.47278528519579
scalar Network.dyn_peer[29] 	lookupHopsSig:mean 	4.2195945945946
scalar Network.dyn_peer[30] 	lookupTimeSig:mean 	0.45824915824916
scalar Network.dyn_peer[30] 	lookupStabilitySig:mean 	0.49242424242424
scalar Network.dyn_peer[30] 	lookupHopsSig:mean 	4.0639730639731
scalar Network.dyn_peer[31] 	lookupTimeSig:mean 	0.46751592356688
scalar Network.dyn_peer[31] 	lookupStabilitySig:mean 	0.47956475575164
scalar Network.dyn_peer[31] 	lookupHopsSig:mean 	4.1687898089172
