version 2
run Stability-norelink-105-20130525-23:21:01-22103
attr configname Stability-norelink
attr datetime 20130525-23:21:01
attr experiment Stability
attr inifile omnetpp.ini
attr iterationvars $0=1e-4
attr iterationvars2 "$0=1e-4, $repetition=5"
attr measurement $0=1e-4
attr network Network
attr processid 22103
attr repetition 5
attr replication #5
attr resultdir results
attr runnumber 105
attr seedset 105

scalar Network.dyn_peer[0] 	lookupTimeSig:mean 	0.43610223642173
scalar Network.dyn_peer[0] 	lookupStabilitySig:mean 	0.52036741209297
scalar Network.dyn_peer[0] 	lookupHopsSig:mean 	3.8402555910543
scalar Network.dyn_peer[1] 	lookupTimeSig:mean 	0.4625786163522
scalar Network.dyn_peer[1] 	lookupStabilitySig:mean 	0.48427672955975
scalar Network.dyn_peer[1] 	lookupHopsSig:mean 	4.125786163522
scalar Network.dyn_peer[2] 	lookupTimeSig:mean 	0.46861313868613
scalar Network.dyn_peer[2] 	lookupStabilitySig:mean 	0.47095498779829
scalar Network.dyn_peer[2] 	lookupHopsSig:mean 	4.2335766423358
scalar Network.dyn_peer[3] 	lookupTimeSig:mean 	0.44597014925373
scalar Network.dyn_peer[3] 	lookupStabilitySig:mean 	0.50825041459123
scalar Network.dyn_peer[3] 	lookupHopsSig:mean 	3.934328358209
scalar Network.dyn_peer[4] 	lookupTimeSig:mean 	0.49243986254296
scalar Network.dyn_peer[4] 	lookupStabilitySig:mean 	0.44563764794586
scalar Network.dyn_peer[4] 	lookupHopsSig:mean 	4.4364261168385
scalar Network.dyn_peer[5] 	lookupTimeSig:mean 	0.44166666666667
scalar Network.dyn_peer[5] 	lookupStabilitySig:mean 	0.51170762107731
scalar Network.dyn_peer[5] 	lookupHopsSig:mean 	3.9070512820513
scalar Network.dyn_peer[6] 	lookupTimeSig:mean 	0.42810650887574
scalar Network.dyn_peer[6] 	lookupStabilitySig:mean 	0.53340729766873
scalar Network.dyn_peer[6] 	lookupHopsSig:mean 	3.7396449704142
scalar Network.dyn_peer[7] 	lookupTimeSig:mean 	0.50072727272727
scalar Network.dyn_peer[7] 	lookupStabilitySig:mean 	0.42636363636364
scalar Network.dyn_peer[7] 	lookupHopsSig:mean 	4.5890909090909
scalar Network.dyn_peer[8] 	lookupTimeSig:mean 	0.4748322147651
scalar Network.dyn_peer[8] 	lookupStabilitySig:mean 	0.46089671882207
scalar Network.dyn_peer[8] 	lookupHopsSig:mean 	4.3154362416107
scalar Network.dyn_peer[9] 	lookupTimeSig:mean 	0.54833948339483
scalar Network.dyn_peer[9] 	lookupStabilitySig:mean 	0.36592865927743
scalar Network.dyn_peer[9] 	lookupHopsSig:mean 	5.0738007380074
scalar Network.dyn_peer[10] 	lookupTimeSig:mean 	0.46538461538462
scalar Network.dyn_peer[10] 	lookupStabilitySig:mean 	0.47202797202797
scalar Network.dyn_peer[10] 	lookupHopsSig:mean 	4.2237762237762
scalar Network.dyn_peer[11] 	lookupTimeSig:mean 	0.45526315789474
scalar Network.dyn_peer[11] 	lookupStabilitySig:mean 	0.49419773387183
scalar Network.dyn_peer[11] 	lookupHopsSig:mean 	4.0493421052632
scalar Network.dyn_peer[12] 	lookupTimeSig:mean 	0.47541528239203
scalar Network.dyn_peer[12] 	lookupStabilitySig:mean 	0.46663898098409
scalar Network.dyn_peer[12] 	lookupHopsSig:mean 	4.2724252491694
scalar Network.dyn_peer[13] 	lookupTimeSig:mean 	0.47152542372881
scalar Network.dyn_peer[13] 	lookupStabilitySig:mean 	0.46567796610169
scalar Network.dyn_peer[13] 	lookupHopsSig:mean 	4.2745762711864
scalar Network.dyn_peer[14] 	lookupTimeSig:mean 	0.47475083056478
scalar Network.dyn_peer[14] 	lookupStabilitySig:mean 	0.47176079734219
scalar Network.dyn_peer[14] 	lookupHopsSig:mean 	4.2259136212625
scalar Network.dyn_peer[15] 	lookupTimeSig:mean 	0.47087719298246
scalar Network.dyn_peer[15] 	lookupStabilitySig:mean 	0.46842105263158
scalar Network.dyn_peer[15] 	lookupHopsSig:mean 	4.2526315789474
scalar Network.dyn_peer[16] 	lookupTimeSig:mean 	0.48025889967638
scalar Network.dyn_peer[16] 	lookupStabilitySig:mean 	0.45711974110032
scalar Network.dyn_peer[16] 	lookupHopsSig:mean 	4.3430420711974
scalar Network.dyn_peer[17] 	lookupTimeSig:mean 	0.47222222222222
scalar Network.dyn_peer[17] 	lookupStabilitySig:mean 	0.47549019607843
scalar Network.dyn_peer[17] 	lookupHopsSig:mean 	4.1960784313725
scalar Network.dyn_peer[18] 	lookupTimeSig:mean 	0.46961130742049
scalar Network.dyn_peer[18] 	lookupStabilitySig:mean 	0.47330192373835
scalar Network.dyn_peer[18] 	lookupHopsSig:mean 	4.2155477031802
scalar Network.dyn_peer[19] 	lookupTimeSig:mean 	0.45050847457627
scalar Network.dyn_peer[19] 	lookupStabilitySig:mean 	0.49449152542373
scalar Network.dyn_peer[19] 	lookupHopsSig:mean 	4.0440677966102
scalar Network.dyn_peer[20] 	lookupTimeSig:mean 	0.50732600732601
scalar Network.dyn_peer[20] 	lookupStabilitySig:mean 	0.42521367503173
scalar Network.dyn_peer[20] 	lookupHopsSig:mean 	4.6080586080586
scalar Network.dyn_peer[21] 	lookupTimeSig:mean 	0.4921768707483
scalar Network.dyn_peer[21] 	lookupStabilitySig:mean 	0.44671201807301
scalar Network.dyn_peer[21] 	lookupHopsSig:mean 	4.4285714285714
scalar Network.dyn_peer[22] 	lookupTimeSig:mean 	0.49136690647482
scalar Network.dyn_peer[22] 	lookupStabilitySig:mean 	0.43735011980581
scalar Network.dyn_peer[22] 	lookupHopsSig:mean 	4.5035971223022
scalar Network.dyn_peer[23] 	lookupTimeSig:mean 	0.44736842105263
scalar Network.dyn_peer[23] 	lookupStabilitySig:mean 	0.5055469555936
scalar Network.dyn_peer[23] 	lookupHopsSig:mean 	3.9566563467492
scalar Network.dyn_peer[24] 	lookupTimeSig:mean 	0.44662162162162
scalar Network.dyn_peer[24] 	lookupStabilitySig:mean 	0.50506756756757
scalar Network.dyn_peer[24] 	lookupHopsSig:mean 	3.9594594594595
scalar Network.dyn_peer[25] 	lookupTimeSig:mean 	0.458125
scalar Network.dyn_peer[25] 	lookupStabilitySig:mean 	0.48789062490687
scalar Network.dyn_peer[25] 	lookupHopsSig:mean 	4.1
scalar Network.dyn_peer[26] 	lookupTimeSig:mean 	0.50352112676056
scalar Network.dyn_peer[26] 	lookupStabilitySig:mean 	0.43016431916138
scalar Network.dyn_peer[26] 	lookupHopsSig:mean 	4.5633802816901
scalar Network.dyn_peer[27] 	lookupTimeSig:mean 	0.47465277777778
scalar Network.dyn_peer[27] 	lookupStabilitySig:mean 	0.46860532405683
scalar Network.dyn_peer[27] 	lookupHopsSig:mean 	4.2534722222222
scalar Network.dyn_peer[28] 	lookupTimeSig:mean 	0.47602739726027
scalar Network.dyn_peer[28] 	lookupStabilitySig:mean 	0.45952245052138
scalar Network.dyn_peer[28] 	lookupHopsSig:mean 	4.3253424657534
scalar Network.dyn_peer[29] 	lookupTimeSig:mean 	0.47434210526316
scalar Network.dyn_peer[29] 	lookupStabilitySig:mean 	0.47203947368421
scalar Network.dyn_peer[29] 	lookupHopsSig:mean 	4.2236842105263
scalar Network.dyn_peer[30] 	lookupTimeSig:mean 	0.44777070063694
scalar Network.dyn_peer[30] 	lookupStabilitySig:mean 	0.5022116064266
scalar Network.dyn_peer[30] 	lookupHopsSig:mean 	3.984076433121
scalar Network.dyn_peer[31] 	lookupTimeSig:mean 	0.44171974522293
scalar Network.dyn_peer[31] 	lookupStabilitySig:mean 	0.50880219381611
scalar Network.dyn_peer[31] 	lookupHopsSig:mean 	3.9331210191083
