version 2
run Stability-norelink-53-20130525-23:17:31-22103
attr configname Stability-norelink
attr datetime 20130525-23:17:31
attr experiment Stability
attr inifile omnetpp.ini
attr iterationvars $0=1e1
attr iterationvars2 "$0=1e1, $repetition=3"
attr measurement $0=1e1
attr network Network
attr processid 22103
attr repetition 3
attr replication #3
attr resultdir results
attr runnumber 53
attr seedset 53

scalar Network.dyn_peer[0] 	lookupTimeSig:mean 	0.47755775577558
scalar Network.dyn_peer[0] 	lookupStabilitySig:mean 	0.4600293360921
scalar Network.dyn_peer[0] 	lookupHopsSig:mean 	4.3234323432343
scalar Network.dyn_peer[1] 	lookupTimeSig:mean 	0.47003367003367
scalar Network.dyn_peer[1] 	lookupStabilitySig:mean 	0.47390572390572
scalar Network.dyn_peer[1] 	lookupHopsSig:mean 	4.2087542087542
scalar Network.dyn_peer[2] 	lookupTimeSig:mean 	0.46425992779783
scalar Network.dyn_peer[2] 	lookupStabilitySig:mean 	0.48295226633979
scalar Network.dyn_peer[2] 	lookupHopsSig:mean 	4.1371841155235
scalar Network.dyn_peer[3] 	lookupTimeSig:mean 	0.46202090592335
scalar Network.dyn_peer[3] 	lookupStabilitySig:mean 	0.48040069686411
scalar Network.dyn_peer[3] 	lookupHopsSig:mean 	4.1567944250871
scalar Network.dyn_peer[4] 	lookupTimeSig:mean 	0.45964285714286
scalar Network.dyn_peer[4] 	lookupStabilitySig:mean 	0.48348214285714
scalar Network.dyn_peer[4] 	lookupHopsSig:mean 	4.1321428571429
scalar Network.dyn_peer[5] 	lookupTimeSig:mean 	0.50415094339623
scalar Network.dyn_peer[5] 	lookupStabilitySig:mean 	0.42452830188679
scalar Network.dyn_peer[5] 	lookupHopsSig:mean 	4.6037735849057
scalar Network.dyn_peer[6] 	lookupTimeSig:mean 	0.45451612903226
scalar Network.dyn_peer[6] 	lookupStabilitySig:mean 	0.49422043004344
scalar Network.dyn_peer[6] 	lookupHopsSig:mean 	4.0483870967742
scalar Network.dyn_peer[7] 	lookupTimeSig:mean 	0.44340836012862
scalar Network.dyn_peer[7] 	lookupStabilitySig:mean 	0.5088424437299
scalar Network.dyn_peer[7] 	lookupHopsSig:mean 	3.9292604501608
scalar Network.dyn_peer[8] 	lookupTimeSig:mean 	0.49405594405594
scalar Network.dyn_peer[8] 	lookupStabilitySig:mean 	0.43594599843442
scalar Network.dyn_peer[8] 	lookupHopsSig:mean 	4.513986013986
scalar Network.dyn_peer[9] 	lookupTimeSig:mean 	0.43930817610063
scalar Network.dyn_peer[9] 	lookupStabilitySig:mean 	0.51022012578616
scalar Network.dyn_peer[9] 	lookupHopsSig:mean 	3.9182389937107
scalar Network.dyn_peer[10] 	lookupTimeSig:mean 	0.49050847457627
scalar Network.dyn_peer[10] 	lookupStabilitySig:mean 	0.45254237288136
scalar Network.dyn_peer[10] 	lookupHopsSig:mean 	4.3796610169492
scalar Network.dyn_peer[11] 	lookupTimeSig:mean 	0.44129692832764
scalar Network.dyn_peer[11] 	lookupStabilitySig:mean 	0.51279863481229
scalar Network.dyn_peer[11] 	lookupHopsSig:mean 	3.8976109215017
scalar Network.dyn_peer[12] 	lookupTimeSig:mean 	0.45836298932384
scalar Network.dyn_peer[12] 	lookupStabilitySig:mean 	0.48324436532645
scalar Network.dyn_peer[12] 	lookupHopsSig:mean 	4.135231316726
scalar Network.dyn_peer[13] 	lookupTimeSig:mean 	0.44026402640264
scalar Network.dyn_peer[13] 	lookupStabilitySig:mean 	0.51645581222603
scalar Network.dyn_peer[13] 	lookupHopsSig:mean 	3.8712871287129
scalar Network.dyn_peer[14] 	lookupTimeSig:mean 	0.43207547169811
scalar Network.dyn_peer[14] 	lookupStabilitySig:mean 	0.52633647798742
scalar Network.dyn_peer[14] 	lookupHopsSig:mean 	3.7893081761006
scalar Network.dyn_peer[15] 	lookupTimeSig:mean 	0.45479452054795
scalar Network.dyn_peer[15] 	lookupStabilitySig:mean 	0.49614726027397
scalar Network.dyn_peer[15] 	lookupHopsSig:mean 	4.0308219178082
scalar Network.dyn_peer[16] 	lookupTimeSig:mean 	0.45348837209302
scalar Network.dyn_peer[16] 	lookupStabilitySig:mean 	0.49169435215947
scalar Network.dyn_peer[16] 	lookupHopsSig:mean 	4.0664451827243
scalar Network.dyn_peer[17] 	lookupTimeSig:mean 	0.45827814569536
scalar Network.dyn_peer[17] 	lookupStabilitySig:mean 	0.48965231788079
scalar Network.dyn_peer[17] 	lookupHopsSig:mean 	4.0827814569536
scalar Network.dyn_peer[18] 	lookupTimeSig:mean 	0.45451612903226
scalar Network.dyn_peer[18] 	lookupStabilitySig:mean 	0.4991935483871
scalar Network.dyn_peer[18] 	lookupHopsSig:mean 	4.0064516129032
scalar Network.dyn_peer[19] 	lookupTimeSig:mean 	0.44554455445545
scalar Network.dyn_peer[19] 	lookupStabilitySig:mean 	0.50572973952042
scalar Network.dyn_peer[19] 	lookupHopsSig:mean 	3.960396039604
scalar Network.dyn_peer[20] 	lookupTimeSig:mean 	0.46677966101695
scalar Network.dyn_peer[20] 	lookupStabilitySig:mean 	0.47161016949153
scalar Network.dyn_peer[20] 	lookupHopsSig:mean 	4.2271186440678
scalar Network.dyn_peer[21] 	lookupTimeSig:mean 	0.45048231511254
scalar Network.dyn_peer[21] 	lookupStabilitySig:mean 	0.50326009288766
scalar Network.dyn_peer[21] 	lookupHopsSig:mean 	3.9742765273312
scalar Network.dyn_peer[22] 	lookupTimeSig:mean 	0.44903846153846
scalar Network.dyn_peer[22] 	lookupStabilitySig:mean 	0.50280448717949
scalar Network.dyn_peer[22] 	lookupHopsSig:mean 	3.9775641025641
scalar Network.dyn_peer[23] 	lookupTimeSig:mean 	0.46612377850163
scalar Network.dyn_peer[23] 	lookupStabilitySig:mean 	0.47805826999368
scalar Network.dyn_peer[23] 	lookupHopsSig:mean 	4.1758957654723
scalar Network.dyn_peer[24] 	lookupTimeSig:mean 	0.49583333333333
scalar Network.dyn_peer[24] 	lookupStabilitySig:mean 	0.43716242283376
scalar Network.dyn_peer[24] 	lookupHopsSig:mean 	4.5034722222222
scalar Network.dyn_peer[25] 	lookupTimeSig:mean 	0.44602649006622
scalar Network.dyn_peer[25] 	lookupStabilitySig:mean 	0.50381714495405
scalar Network.dyn_peer[25] 	lookupHopsSig:mean 	3.9701986754967
scalar Network.dyn_peer[26] 	lookupTimeSig:mean 	0.4453125
scalar Network.dyn_peer[26] 	lookupStabilitySig:mean 	0.5076388888061
scalar Network.dyn_peer[26] 	lookupHopsSig:mean 	3.940625
scalar Network.dyn_peer[27] 	lookupTimeSig:mean 	0.47372013651877
scalar Network.dyn_peer[27] 	lookupStabilitySig:mean 	0.4731228668942
scalar Network.dyn_peer[27] 	lookupHopsSig:mean 	4.2150170648464
scalar Network.dyn_peer[28] 	lookupTimeSig:mean 	0.50860215053763
scalar Network.dyn_peer[28] 	lookupStabilitySig:mean 	0.42139585812887
scalar Network.dyn_peer[28] 	lookupHopsSig:mean 	4.6308243727599
scalar Network.dyn_peer[29] 	lookupTimeSig:mean 	0.46227106227106
scalar Network.dyn_peer[29] 	lookupStabilitySig:mean 	0.48168498168498
scalar Network.dyn_peer[29] 	lookupHopsSig:mean 	4.1501831501832
scalar Network.dyn_peer[30] 	lookupTimeSig:mean 	0.46907894736842
scalar Network.dyn_peer[30] 	lookupStabilitySig:mean 	0.46847587718481
scalar Network.dyn_peer[30] 	lookupHopsSig:mean 	4.2532894736842
scalar Network.dyn_peer[31] 	lookupTimeSig:mean 	0.45081433224756
scalar Network.dyn_peer[31] 	lookupStabilitySig:mean 	0.5005881288104
scalar Network.dyn_peer[31] 	lookupHopsSig:mean 	3.9967426710098
