version 2
run Stability-norelink-119-20130525-23:21:59-22103
attr configname Stability-norelink
attr datetime 20130525-23:21:59
attr experiment Stability
attr inifile omnetpp.ini
attr iterationvars $0=1e-5
attr iterationvars2 "$0=1e-5, $repetition=9"
attr measurement $0=1e-5
attr network Network
attr processid 22103
attr repetition 9
attr replication #9
attr resultdir results
attr runnumber 119
attr seedset 119

scalar Network.dyn_peer[0] 	lookupTimeSig:mean 	0.48042704626334
scalar Network.dyn_peer[0] 	lookupStabilitySig:mean 	0.45620798719947
scalar Network.dyn_peer[0] 	lookupHopsSig:mean 	4.355871886121
scalar Network.dyn_peer[1] 	lookupTimeSig:mean 	0.44833836858006
scalar Network.dyn_peer[1] 	lookupStabilitySig:mean 	0.50679758308157
scalar Network.dyn_peer[1] 	lookupHopsSig:mean 	3.9456193353474
scalar Network.dyn_peer[2] 	lookupTimeSig:mean 	0.49733333333333
scalar Network.dyn_peer[2] 	lookupStabilitySig:mean 	0.44537037034829
scalar Network.dyn_peer[2] 	lookupHopsSig:mean 	4.44
scalar Network.dyn_peer[3] 	lookupTimeSig:mean 	0.441
scalar Network.dyn_peer[3] 	lookupStabilitySig:mean 	0.51458333333333
scalar Network.dyn_peer[3] 	lookupHopsSig:mean 	3.8833333333333
scalar Network.dyn_peer[4] 	lookupTimeSig:mean 	0.51304347826087
scalar Network.dyn_peer[4] 	lookupStabilitySig:mean 	0.41394927536232
scalar Network.dyn_peer[4] 	lookupHopsSig:mean 	4.6884057971014
scalar Network.dyn_peer[5] 	lookupTimeSig:mean 	0.49107142857143
scalar Network.dyn_peer[5] 	lookupStabilitySig:mean 	0.44642857137535
scalar Network.dyn_peer[5] 	lookupHopsSig:mean 	4.4321428571429
scalar Network.dyn_peer[6] 	lookupTimeSig:mean 	0.47258566978193
scalar Network.dyn_peer[6] 	lookupStabilitySig:mean 	0.47386638973361
scalar Network.dyn_peer[6] 	lookupHopsSig:mean 	4.2118380062305
scalar Network.dyn_peer[7] 	lookupTimeSig:mean 	0.46144200626959
scalar Network.dyn_peer[7] 	lookupStabilitySig:mean 	0.48645942179387
scalar Network.dyn_peer[7] 	lookupHopsSig:mean 	4.1097178683386
scalar Network.dyn_peer[8] 	lookupTimeSig:mean 	0.50357142857143
scalar Network.dyn_peer[8] 	lookupStabilitySig:mean 	0.42891865074635
scalar Network.dyn_peer[8] 	lookupHopsSig:mean 	4.5714285714286
scalar Network.dyn_peer[9] 	lookupTimeSig:mean 	0.45747508305648
scalar Network.dyn_peer[9] 	lookupStabilitySig:mean 	0.48394241414197
scalar Network.dyn_peer[9] 	lookupHopsSig:mean 	4.1295681063123
scalar Network.dyn_peer[10] 	lookupTimeSig:mean 	0.50107142857143
scalar Network.dyn_peer[10] 	lookupStabilitySig:mean 	0.44216269840087
scalar Network.dyn_peer[10] 	lookupHopsSig:mean 	4.4642857142857
scalar Network.dyn_peer[11] 	lookupTimeSig:mean 	0.45756578947368
scalar Network.dyn_peer[11] 	lookupStabilitySig:mean 	0.4921875
scalar Network.dyn_peer[11] 	lookupHopsSig:mean 	4.0625
scalar Network.dyn_peer[12] 	lookupTimeSig:mean 	0.48885135135135
scalar Network.dyn_peer[12] 	lookupStabilitySig:mean 	0.44603978973385
scalar Network.dyn_peer[12] 	lookupHopsSig:mean 	4.4358108108108
scalar Network.dyn_peer[13] 	lookupTimeSig:mean 	0.44839743589744
scalar Network.dyn_peer[13] 	lookupStabilitySig:mean 	0.50596509962223
scalar Network.dyn_peer[13] 	lookupHopsSig:mean 	3.9551282051282
scalar Network.dyn_peer[14] 	lookupTimeSig:mean 	0.46346153846154
scalar Network.dyn_peer[14] 	lookupStabilitySig:mean 	0.48263888882521
scalar Network.dyn_peer[14] 	lookupHopsSig:mean 	4.1410256410256
scalar Network.dyn_peer[15] 	lookupTimeSig:mean 	0.47174603174603
scalar Network.dyn_peer[15] 	lookupStabilitySig:mean 	0.47275132271979
scalar Network.dyn_peer[15] 	lookupHopsSig:mean 	4.2190476190476
scalar Network.dyn_peer[16] 	lookupTimeSig:mean 	0.45765765765766
scalar Network.dyn_peer[16] 	lookupStabilitySig:mean 	0.4984984984985
scalar Network.dyn_peer[16] 	lookupHopsSig:mean 	4.012012012012
scalar Network.dyn_peer[17] 	lookupTimeSig:mean 	0.47142857142857
scalar Network.dyn_peer[17] 	lookupStabilitySig:mean 	0.46825396822018
scalar Network.dyn_peer[17] 	lookupHopsSig:mean 	4.2551020408163
scalar Network.dyn_peer[18] 	lookupTimeSig:mean 	0.47751677852349
scalar Network.dyn_peer[18] 	lookupStabilitySig:mean 	0.46276099929874
scalar Network.dyn_peer[18] 	lookupHopsSig:mean 	4.3020134228188
scalar Network.dyn_peer[19] 	lookupTimeSig:mean 	0.44951768488746
scalar Network.dyn_peer[19] 	lookupStabilitySig:mean 	0.49879421221865
scalar Network.dyn_peer[19] 	lookupHopsSig:mean 	4.0096463022508
scalar Network.dyn_peer[20] 	lookupTimeSig:mean 	0.49084507042254
scalar Network.dyn_peer[20] 	lookupStabilitySig:mean 	0.44366197172605
scalar Network.dyn_peer[20] 	lookupHopsSig:mean 	4.4542253521127
scalar Network.dyn_peer[21] 	lookupTimeSig:mean 	0.43993808049536
scalar Network.dyn_peer[21] 	lookupStabilitySig:mean 	0.51328689367409
scalar Network.dyn_peer[21] 	lookupHopsSig:mean 	3.8947368421053
scalar Network.dyn_peer[22] 	lookupTimeSig:mean 	0.46557863501484
scalar Network.dyn_peer[22] 	lookupStabilitySig:mean 	0.47902242001422
scalar Network.dyn_peer[22] 	lookupHopsSig:mean 	4.1721068249258
scalar Network.dyn_peer[23] 	lookupTimeSig:mean 	0.47842465753425
scalar Network.dyn_peer[23] 	lookupStabilitySig:mean 	0.46832191780822
scalar Network.dyn_peer[23] 	lookupHopsSig:mean 	4.2534246575342
scalar Network.dyn_peer[24] 	lookupTimeSig:mean 	0.42907348242812
scalar Network.dyn_peer[24] 	lookupStabilitySig:mean 	0.52888711387167
scalar Network.dyn_peer[24] 	lookupHopsSig:mean 	3.7731629392971
scalar Network.dyn_peer[25] 	lookupTimeSig:mean 	0.45460122699387
scalar Network.dyn_peer[25] 	lookupStabilitySig:mean 	0.49271472383496
scalar Network.dyn_peer[25] 	lookupHopsSig:mean 	4.0644171779141
scalar Network.dyn_peer[26] 	lookupTimeSig:mean 	0.4741935483871
scalar Network.dyn_peer[26] 	lookupStabilitySig:mean 	0.46938470721672
scalar Network.dyn_peer[26] 	lookupHopsSig:mean 	4.247311827957
scalar Network.dyn_peer[27] 	lookupTimeSig:mean 	0.48197879858657
scalar Network.dyn_peer[27] 	lookupStabilitySig:mean 	0.45803886925795
scalar Network.dyn_peer[27] 	lookupHopsSig:mean 	4.3356890459364
scalar Network.dyn_peer[28] 	lookupTimeSig:mean 	0.48493150684931
scalar Network.dyn_peer[28] 	lookupStabilitySig:mean 	0.45234018258036
scalar Network.dyn_peer[28] 	lookupHopsSig:mean 	4.3835616438356
scalar Network.dyn_peer[29] 	lookupTimeSig:mean 	0.48819444444444
scalar Network.dyn_peer[29] 	lookupStabilitySig:mean 	0.4441068672782
scalar Network.dyn_peer[29] 	lookupHopsSig:mean 	4.4479166666667
scalar Network.dyn_peer[30] 	lookupTimeSig:mean 	0.46643835616438
scalar Network.dyn_peer[30] 	lookupStabilitySig:mean 	0.47797754942758
scalar Network.dyn_peer[30] 	lookupHopsSig:mean 	4.1780821917808
scalar Network.dyn_peer[31] 	lookupTimeSig:mean 	0.46785714285714
scalar Network.dyn_peer[31] 	lookupStabilitySig:mean 	0.48277417018816
scalar Network.dyn_peer[31] 	lookupHopsSig:mean 	4.1396103896104
