version 2
run Stability-norelink-61-20130525-23:18:03-22103
attr configname Stability-norelink
attr datetime 20130525-23:18:03
attr experiment Stability
attr inifile omnetpp.ini
attr iterationvars $0=1e0
attr iterationvars2 "$0=1e0, $repetition=1"
attr measurement $0=1e0
attr network Network
attr processid 22103
attr repetition 1
attr replication #1
attr resultdir results
attr runnumber 61
attr seedset 61

scalar Network.dyn_peer[0] 	lookupTimeSig:mean 	0.45961538461538
scalar Network.dyn_peer[0] 	lookupStabilitySig:mean 	0.48864850420982
scalar Network.dyn_peer[0] 	lookupHopsSig:mean 	4.0929487179487
scalar Network.dyn_peer[1] 	lookupTimeSig:mean 	0.49452054794521
scalar Network.dyn_peer[1] 	lookupStabilitySig:mean 	0.44558599693318
scalar Network.dyn_peer[1] 	lookupHopsSig:mean 	4.4383561643836
scalar Network.dyn_peer[2] 	lookupTimeSig:mean 	0.47864406779661
scalar Network.dyn_peer[2] 	lookupStabilitySig:mean 	0.46459510356693
scalar Network.dyn_peer[2] 	lookupHopsSig:mean 	4.2847457627119
scalar Network.dyn_peer[3] 	lookupTimeSig:mean 	0.46229508196721
scalar Network.dyn_peer[3] 	lookupStabilitySig:mean 	0.48488160291168
scalar Network.dyn_peer[3] 	lookupHopsSig:mean 	4.1213114754098
scalar Network.dyn_peer[4] 	lookupTimeSig:mean 	0.48322147651007
scalar Network.dyn_peer[4] 	lookupStabilitySig:mean 	0.45385906040268
scalar Network.dyn_peer[4] 	lookupHopsSig:mean 	4.3691275167785
scalar Network.dyn_peer[5] 	lookupTimeSig:mean 	0.48027210884354
scalar Network.dyn_peer[5] 	lookupStabilitySig:mean 	0.45918367346939
scalar Network.dyn_peer[5] 	lookupHopsSig:mean 	4.3265306122449
scalar Network.dyn_peer[6] 	lookupTimeSig:mean 	0.49315068493151
scalar Network.dyn_peer[6] 	lookupStabilitySig:mean 	0.44263698630137
scalar Network.dyn_peer[6] 	lookupHopsSig:mean 	4.458904109589
scalar Network.dyn_peer[7] 	lookupTimeSig:mean 	0.44417910447761
scalar Network.dyn_peer[7] 	lookupStabilitySig:mean 	0.50742122717758
scalar Network.dyn_peer[7] 	lookupHopsSig:mean 	3.9432835820896
scalar Network.dyn_peer[8] 	lookupTimeSig:mean 	0.51484375
scalar Network.dyn_peer[8] 	lookupStabilitySig:mean 	0.40755208325572
scalar Network.dyn_peer[8] 	lookupHopsSig:mean 	4.7421875
scalar Network.dyn_peer[9] 	lookupTimeSig:mean 	0.46141479099678
scalar Network.dyn_peer[9] 	lookupStabilitySig:mean 	0.48276170053283
scalar Network.dyn_peer[9] 	lookupHopsSig:mean 	4.1414790996785
scalar Network.dyn_peer[10] 	lookupTimeSig:mean 	0.47238095238095
scalar Network.dyn_peer[10] 	lookupStabilitySig:mean 	0.47076719573566
scalar Network.dyn_peer[10] 	lookupHopsSig:mean 	4.2349206349206
scalar Network.dyn_peer[11] 	lookupTimeSig:mean 	0.472
scalar Network.dyn_peer[11] 	lookupStabilitySig:mean 	0.47175925917923
scalar Network.dyn_peer[11] 	lookupHopsSig:mean 	4.23
scalar Network.dyn_peer[12] 	lookupTimeSig:mean 	0.47308970099668
scalar Network.dyn_peer[12] 	lookupStabilitySig:mean 	0.47323735687028
scalar Network.dyn_peer[12] 	lookupHopsSig:mean 	4.2159468438538
scalar Network.dyn_peer[13] 	lookupTimeSig:mean 	0.45431309904153
scalar Network.dyn_peer[13] 	lookupStabilitySig:mean 	0.49880191693291
scalar Network.dyn_peer[13] 	lookupHopsSig:mean 	4.0095846645367
scalar Network.dyn_peer[14] 	lookupTimeSig:mean 	0.51187050359712
scalar Network.dyn_peer[14] 	lookupStabilitySig:mean 	0.41501798561151
scalar Network.dyn_peer[14] 	lookupHopsSig:mean 	4.6798561151079
scalar Network.dyn_peer[15] 	lookupTimeSig:mean 	0.4613475177305
scalar Network.dyn_peer[15] 	lookupStabilitySig:mean 	0.48596335696519
scalar Network.dyn_peer[15] 	lookupHopsSig:mean 	4.113475177305
scalar Network.dyn_peer[16] 	lookupTimeSig:mean 	0.46307189542484
scalar Network.dyn_peer[16] 	lookupStabilitySig:mean 	0.48602033399192
scalar Network.dyn_peer[16] 	lookupHopsSig:mean 	4.1143790849673
scalar Network.dyn_peer[17] 	lookupTimeSig:mean 	0.45323076923077
scalar Network.dyn_peer[17] 	lookupStabilitySig:mean 	0.49418803435106
scalar Network.dyn_peer[17] 	lookupHopsSig:mean 	4.0523076923077
scalar Network.dyn_peer[18] 	lookupTimeSig:mean 	0.51818181818182
scalar Network.dyn_peer[18] 	lookupStabilitySig:mean 	0.41938616929354
scalar Network.dyn_peer[18] 	lookupHopsSig:mean 	4.6468531468531
scalar Network.dyn_peer[19] 	lookupTimeSig:mean 	0.4771986970684
scalar Network.dyn_peer[19] 	lookupStabilitySig:mean 	0.46584328628033
scalar Network.dyn_peer[19] 	lookupHopsSig:mean 	4.2736156351792
scalar Network.dyn_peer[20] 	lookupTimeSig:mean 	0.4616724738676
scalar Network.dyn_peer[20] 	lookupStabilitySig:mean 	0.47865853658537
scalar Network.dyn_peer[20] 	lookupHopsSig:mean 	4.1707317073171
scalar Network.dyn_peer[21] 	lookupTimeSig:mean 	0.44394904458599
scalar Network.dyn_peer[21] 	lookupStabilitySig:mean 	0.51512738853503
scalar Network.dyn_peer[21] 	lookupHopsSig:mean 	3.8789808917197
scalar Network.dyn_peer[22] 	lookupTimeSig:mean 	0.49444444444444
scalar Network.dyn_peer[22] 	lookupStabilitySig:mean 	0.44738618822561
scalar Network.dyn_peer[22] 	lookupHopsSig:mean 	4.4236111111111
scalar Network.dyn_peer[23] 	lookupTimeSig:mean 	0.45245901639344
scalar Network.dyn_peer[23] 	lookupStabilitySig:mean 	0.50081967213115
scalar Network.dyn_peer[23] 	lookupHopsSig:mean 	3.9934426229508
scalar Network.dyn_peer[24] 	lookupTimeSig:mean 	0.45493827160494
scalar Network.dyn_peer[24] 	lookupStabilitySig:mean 	0.50038580246914
scalar Network.dyn_peer[24] 	lookupHopsSig:mean 	3.9969135802469
scalar Network.dyn_peer[25] 	lookupTimeSig:mean 	0.4570945945946
scalar Network.dyn_peer[25] 	lookupStabilitySig:mean 	0.48817567567568
scalar Network.dyn_peer[25] 	lookupHopsSig:mean 	4.0945945945946
scalar Network.dyn_peer[26] 	lookupTimeSig:mean 	0.50524475524476
scalar Network.dyn_peer[26] 	lookupStabilitySig:mean 	0.4222027972028
scalar Network.dyn_peer[26] 	lookupHopsSig:mean 	4.6223776223776
scalar Network.dyn_peer[27] 	lookupTimeSig:mean 	0.48842443729904
scalar Network.dyn_peer[27] 	lookupStabilitySig:mean 	0.45154519470175
scalar Network.dyn_peer[27] 	lookupHopsSig:mean 	4.3890675241158
scalar Network.dyn_peer[28] 	lookupTimeSig:mean 	0.49581881533101
scalar Network.dyn_peer[28] 	lookupStabilitySig:mean 	0.43694347657185
scalar Network.dyn_peer[28] 	lookupHopsSig:mean 	4.5052264808362
scalar Network.dyn_peer[29] 	lookupTimeSig:mean 	0.47296416938111
scalar Network.dyn_peer[29] 	lookupStabilitySig:mean 	0.47050307635279
scalar Network.dyn_peer[29] 	lookupHopsSig:mean 	4.2377850162866
scalar Network.dyn_peer[30] 	lookupTimeSig:mean 	0.46600660066007
scalar Network.dyn_peer[30] 	lookupStabilitySig:mean 	0.48721122112211
scalar Network.dyn_peer[30] 	lookupHopsSig:mean 	4.1023102310231
scalar Network.dyn_peer[31] 	lookupTimeSig:mean 	0.45562913907285
scalar Network.dyn_peer[31] 	lookupStabilitySig:mean 	0.48979028694282
scalar Network.dyn_peer[31] 	lookupHopsSig:mean 	4.0827814569536
