version 2
run Stability-norelink-142-20130525-23:23:31-22103
attr configname Stability-norelink
attr datetime 20130525-23:23:31
attr experiment Stability
attr inifile omnetpp.ini
attr iterationvars $0=1e-8
attr iterationvars2 "$0=1e-8, $repetition=2"
attr measurement $0=1e-8
attr network Network
attr processid 22103
attr repetition 2
attr replication #2
attr resultdir results
attr runnumber 142
attr seedset 142

scalar Network.dyn_peer[0] 	lookupTimeSig:mean 	0.44818481848185
scalar Network.dyn_peer[0] 	lookupStabilitySig:mean 	0.50183351667407
scalar Network.dyn_peer[0] 	lookupHopsSig:mean 	3.986798679868
scalar Network.dyn_peer[1] 	lookupTimeSig:mean 	0.48409893992933
scalar Network.dyn_peer[1] 	lookupStabilitySig:mean 	0.4605418138285
scalar Network.dyn_peer[1] 	lookupHopsSig:mean 	4.321554770318
scalar Network.dyn_peer[2] 	lookupTimeSig:mean 	0.47589576547231
scalar Network.dyn_peer[2] 	lookupStabilitySig:mean 	0.47335323919497
scalar Network.dyn_peer[2] 	lookupHopsSig:mean 	4.214983713355
scalar Network.dyn_peer[3] 	lookupTimeSig:mean 	0.44539877300613
scalar Network.dyn_peer[3] 	lookupStabilitySig:mean 	0.50881901840491
scalar Network.dyn_peer[3] 	lookupHopsSig:mean 	3.9294478527607
scalar Network.dyn_peer[4] 	lookupTimeSig:mean 	0.45610561056106
scalar Network.dyn_peer[4] 	lookupStabilitySig:mean 	0.4840484048077
scalar Network.dyn_peer[4] 	lookupHopsSig:mean 	4.1287128712871
scalar Network.dyn_peer[5] 	lookupTimeSig:mean 	0.46338983050847
scalar Network.dyn_peer[5] 	lookupStabilitySig:mean 	0.48262711864407
scalar Network.dyn_peer[5] 	lookupHopsSig:mean 	4.1389830508475
scalar Network.dyn_peer[6] 	lookupTimeSig:mean 	0.46047297297297
scalar Network.dyn_peer[6] 	lookupStabilitySig:mean 	0.48503190686775
scalar Network.dyn_peer[6] 	lookupHopsSig:mean 	4.1216216216216
scalar Network.dyn_peer[7] 	lookupTimeSig:mean 	0.48603174603175
scalar Network.dyn_peer[7] 	lookupStabilitySig:mean 	0.45833333333333
scalar Network.dyn_peer[7] 	lookupHopsSig:mean 	4.3365079365079
scalar Network.dyn_peer[8] 	lookupTimeSig:mean 	0.47671232876712
scalar Network.dyn_peer[8] 	lookupStabilitySig:mean 	0.46090182631391
scalar Network.dyn_peer[8] 	lookupHopsSig:mean 	4.3184931506849
scalar Network.dyn_peer[9] 	lookupTimeSig:mean 	0.44845679012346
scalar Network.dyn_peer[9] 	lookupStabilitySig:mean 	0.5066015087528
scalar Network.dyn_peer[9] 	lookupHopsSig:mean 	3.9506172839506
scalar Network.dyn_peer[10] 	lookupTimeSig:mean 	0.45448916408669
scalar Network.dyn_peer[10] 	lookupStabilitySig:mean 	0.50580495356037
scalar Network.dyn_peer[10] 	lookupHopsSig:mean 	3.953560371517
scalar Network.dyn_peer[11] 	lookupTimeSig:mean 	0.51118881118881
scalar Network.dyn_peer[11] 	lookupStabilitySig:mean 	0.42307692307692
scalar Network.dyn_peer[11] 	lookupHopsSig:mean 	4.6153846153846
scalar Network.dyn_peer[12] 	lookupTimeSig:mean 	0.43963414634146
scalar Network.dyn_peer[12] 	lookupStabilitySig:mean 	0.51524390243902
scalar Network.dyn_peer[12] 	lookupHopsSig:mean 	3.8780487804878
scalar Network.dyn_peer[13] 	lookupTimeSig:mean 	0.48
scalar Network.dyn_peer[13] 	lookupStabilitySig:mean 	0.46288314168823
scalar Network.dyn_peer[13] 	lookupHopsSig:mean 	4.3
scalar Network.dyn_peer[14] 	lookupTimeSig:mean 	0.49659863945578
scalar Network.dyn_peer[14] 	lookupStabilitySig:mean 	0.43920068027211
scalar Network.dyn_peer[14] 	lookupHopsSig:mean 	4.4863945578231
scalar Network.dyn_peer[15] 	lookupTimeSig:mean 	0.48151815181518
scalar Network.dyn_peer[15] 	lookupStabilitySig:mean 	0.45957095697276
scalar Network.dyn_peer[15] 	lookupHopsSig:mean 	4.3267326732673
scalar Network.dyn_peer[16] 	lookupTimeSig:mean 	0.46544850498339
scalar Network.dyn_peer[16] 	lookupStabilitySig:mean 	0.47697489839852
scalar Network.dyn_peer[16] 	lookupHopsSig:mean 	4.1860465116279
scalar Network.dyn_peer[17] 	lookupTimeSig:mean 	0.45247524752475
scalar Network.dyn_peer[17] 	lookupStabilitySig:mean 	0.49752475247525
scalar Network.dyn_peer[17] 	lookupHopsSig:mean 	4.019801980198
scalar Network.dyn_peer[18] 	lookupTimeSig:mean 	0.45
scalar Network.dyn_peer[18] 	lookupStabilitySig:mean 	0.49995401018108
scalar Network.dyn_peer[18] 	lookupHopsSig:mean 	4.0033112582781
scalar Network.dyn_peer[19] 	lookupTimeSig:mean 	0.50182481751825
scalar Network.dyn_peer[19] 	lookupStabilitySig:mean 	0.42903487422388
scalar Network.dyn_peer[19] 	lookupHopsSig:mean 	4.5729927007299
scalar Network.dyn_peer[20] 	lookupTimeSig:mean 	0.49727891156463
scalar Network.dyn_peer[20] 	lookupStabilitySig:mean 	0.43390967494168
scalar Network.dyn_peer[20] 	lookupHopsSig:mean 	4.530612244898
scalar Network.dyn_peer[21] 	lookupTimeSig:mean 	0.44794952681388
scalar Network.dyn_peer[21] 	lookupStabilitySig:mean 	0.50205923583981
scalar Network.dyn_peer[21] 	lookupHopsSig:mean 	3.98738170347
scalar Network.dyn_peer[22] 	lookupTimeSig:mean 	0.48356164383562
scalar Network.dyn_peer[22] 	lookupStabilitySig:mean 	0.46228120241263
scalar Network.dyn_peer[22] 	lookupHopsSig:mean 	4.3047945205479
scalar Network.dyn_peer[23] 	lookupTimeSig:mean 	0.47357859531773
scalar Network.dyn_peer[23] 	lookupStabilitySig:mean 	0.46762355992627
scalar Network.dyn_peer[23] 	lookupHopsSig:mean 	4.2608695652174
scalar Network.dyn_peer[24] 	lookupTimeSig:mean 	0.47147540983607
scalar Network.dyn_peer[24] 	lookupStabilitySig:mean 	0.48037340611708
scalar Network.dyn_peer[24] 	lookupHopsSig:mean 	4.1606557377049
scalar Network.dyn_peer[25] 	lookupTimeSig:mean 	0.4919014084507
scalar Network.dyn_peer[25] 	lookupStabilitySig:mean 	0.44483568062875
scalar Network.dyn_peer[25] 	lookupHopsSig:mean 	4.4471830985915
scalar Network.dyn_peer[26] 	lookupTimeSig:mean 	0.47839506172839
scalar Network.dyn_peer[26] 	lookupStabilitySig:mean 	0.45841906721025
scalar Network.dyn_peer[26] 	lookupHopsSig:mean 	4.3333333333333
scalar Network.dyn_peer[27] 	lookupTimeSig:mean 	0.48731884057971
scalar Network.dyn_peer[27] 	lookupStabilitySig:mean 	0.45335144927536
scalar Network.dyn_peer[27] 	lookupHopsSig:mean 	4.3731884057971
scalar Network.dyn_peer[28] 	lookupTimeSig:mean 	0.49832214765101
scalar Network.dyn_peer[28] 	lookupStabilitySig:mean 	0.43321215501368
scalar Network.dyn_peer[28] 	lookupHopsSig:mean 	4.5369127516779
scalar Network.dyn_peer[29] 	lookupTimeSig:mean 	0.4646875
scalar Network.dyn_peer[29] 	lookupStabilitySig:mean 	0.48108506938443
scalar Network.dyn_peer[29] 	lookupHopsSig:mean 	4.159375
scalar Network.dyn_peer[30] 	lookupTimeSig:mean 	0.47073954983923
scalar Network.dyn_peer[30] 	lookupStabilitySig:mean 	0.47472311539569
scalar Network.dyn_peer[30] 	lookupHopsSig:mean 	4.2025723472669
scalar Network.dyn_peer[31] 	lookupTimeSig:mean 	0.48156996587031
scalar Network.dyn_peer[31] 	lookupStabilitySig:mean 	0.46250474023229
scalar Network.dyn_peer[31] 	lookupHopsSig:mean 	4.3003412969283
