version 2
run Stability-norelink-82-20130525-23:19:28-22103
attr configname Stability-norelink
attr datetime 20130525-23:19:28
attr experiment Stability
attr inifile omnetpp.ini
attr iterationvars $0=1e-2
attr iterationvars2 "$0=1e-2, $repetition=2"
attr measurement $0=1e-2
attr network Network
attr processid 22103
attr repetition 2
attr replication #2
attr resultdir results
attr runnumber 82
attr seedset 82

scalar Network.dyn_peer[0] 	lookupTimeSig:mean 	0.44444444444445
scalar Network.dyn_peer[0] 	lookupStabilitySig:mean 	0.5101851850275
scalar Network.dyn_peer[0] 	lookupHopsSig:mean 	3.9238095238095
scalar Network.dyn_peer[1] 	lookupTimeSig:mean 	0.45031847133758
scalar Network.dyn_peer[1] 	lookupStabilitySig:mean 	0.49318825171157
scalar Network.dyn_peer[1] 	lookupHopsSig:mean 	4.0636942675159
scalar Network.dyn_peer[2] 	lookupTimeSig:mean 	0.47509293680297
scalar Network.dyn_peer[2] 	lookupStabilitySig:mean 	0.46117306896745
scalar Network.dyn_peer[2] 	lookupHopsSig:mean 	4.3122676579926
scalar Network.dyn_peer[3] 	lookupTimeSig:mean 	0.44524590163934
scalar Network.dyn_peer[3] 	lookupStabilitySig:mean 	0.50610200362127
scalar Network.dyn_peer[3] 	lookupHopsSig:mean 	3.9540983606557
scalar Network.dyn_peer[4] 	lookupTimeSig:mean 	0.44334365325077
scalar Network.dyn_peer[4] 	lookupStabilitySig:mean 	0.51083591331269
scalar Network.dyn_peer[4] 	lookupHopsSig:mean 	3.9133126934985
scalar Network.dyn_peer[5] 	lookupTimeSig:mean 	0.45290519877676
scalar Network.dyn_peer[5] 	lookupStabilitySig:mean 	0.49825857964769
scalar Network.dyn_peer[5] 	lookupHopsSig:mean 	4.0152905198777
scalar Network.dyn_peer[6] 	lookupTimeSig:mean 	0.486925795053
scalar Network.dyn_peer[6] 	lookupStabilitySig:mean 	0.44184334507679
scalar Network.dyn_peer[6] 	lookupHopsSig:mean 	4.4664310954064
scalar Network.dyn_peer[7] 	lookupTimeSig:mean 	0.44426751592357
scalar Network.dyn_peer[7] 	lookupStabilitySig:mean 	0.50712137294423
scalar Network.dyn_peer[7] 	lookupHopsSig:mean 	3.9458598726115
scalar Network.dyn_peer[8] 	lookupTimeSig:mean 	0.45424836601307
scalar Network.dyn_peer[8] 	lookupStabilitySig:mean 	0.48379629626383
scalar Network.dyn_peer[8] 	lookupHopsSig:mean 	4.1307189542484
scalar Network.dyn_peer[9] 	lookupTimeSig:mean 	0.48821428571429
scalar Network.dyn_peer[9] 	lookupStabilitySig:mean 	0.44454365063991
scalar Network.dyn_peer[9] 	lookupHopsSig:mean 	4.4535714285714
scalar Network.dyn_peer[10] 	lookupTimeSig:mean 	0.46794425087108
scalar Network.dyn_peer[10] 	lookupStabilitySig:mean 	0.47406116906774
scalar Network.dyn_peer[10] 	lookupHopsSig:mean 	4.212543554007
scalar Network.dyn_peer[11] 	lookupTimeSig:mean 	0.45048231511254
scalar Network.dyn_peer[11] 	lookupStabilitySig:mean 	0.491961414791
scalar Network.dyn_peer[11] 	lookupHopsSig:mean 	4.064308681672
scalar Network.dyn_peer[12] 	lookupTimeSig:mean 	0.45714285714286
scalar Network.dyn_peer[12] 	lookupStabilitySig:mean 	0.48520923517161
scalar Network.dyn_peer[12] 	lookupHopsSig:mean 	4.1201298701299
scalar Network.dyn_peer[13] 	lookupTimeSig:mean 	0.46933797909408
scalar Network.dyn_peer[13] 	lookupStabilitySig:mean 	0.47231900889284
scalar Network.dyn_peer[13] 	lookupHopsSig:mean 	4.2229965156794
scalar Network.dyn_peer[14] 	lookupTimeSig:mean 	0.46437908496732
scalar Network.dyn_peer[14] 	lookupStabilitySig:mean 	0.48243464052288
scalar Network.dyn_peer[14] 	lookupHopsSig:mean 	4.140522875817
scalar Network.dyn_peer[15] 	lookupTimeSig:mean 	0.47242524916944
scalar Network.dyn_peer[15] 	lookupStabilitySig:mean 	0.47060723513662
scalar Network.dyn_peer[15] 	lookupHopsSig:mean 	4.2358803986711
scalar Network.dyn_peer[16] 	lookupTimeSig:mean 	0.45344262295082
scalar Network.dyn_peer[16] 	lookupStabilitySig:mean 	0.49075591984342
scalar Network.dyn_peer[16] 	lookupHopsSig:mean 	4.0786885245902
scalar Network.dyn_peer[17] 	lookupTimeSig:mean 	0.46510903426791
scalar Network.dyn_peer[17] 	lookupStabilitySig:mean 	0.48295257878823
scalar Network.dyn_peer[17] 	lookupHopsSig:mean 	4.1433021806854
scalar Network.dyn_peer[18] 	lookupTimeSig:mean 	0.47593220338983
scalar Network.dyn_peer[18] 	lookupStabilitySig:mean 	0.45913370994188
scalar Network.dyn_peer[18] 	lookupHopsSig:mean 	4.328813559322
scalar Network.dyn_peer[19] 	lookupTimeSig:mean 	0.48551236749117
scalar Network.dyn_peer[19] 	lookupStabilitySig:mean 	0.45008833919629
scalar Network.dyn_peer[19] 	lookupHopsSig:mean 	4.4028268551237
scalar Network.dyn_peer[20] 	lookupTimeSig:mean 	0.48628762541806
scalar Network.dyn_peer[20] 	lookupStabilitySig:mean 	0.45791527299977
scalar Network.dyn_peer[20] 	lookupHopsSig:mean 	4.3411371237458
scalar Network.dyn_peer[21] 	lookupTimeSig:mean 	0.45897435897436
scalar Network.dyn_peer[21] 	lookupStabilitySig:mean 	0.49492521345233
scalar Network.dyn_peer[21] 	lookupHopsSig:mean 	4.0480769230769
scalar Network.dyn_peer[22] 	lookupTimeSig:mean 	0.45616883116883
scalar Network.dyn_peer[22] 	lookupStabilitySig:mean 	0.48620129860454
scalar Network.dyn_peer[22] 	lookupHopsSig:mean 	4.1168831168831
scalar Network.dyn_peer[23] 	lookupTimeSig:mean 	0.47068403908795
scalar Network.dyn_peer[23] 	lookupStabilitySig:mean 	0.47480094100346
scalar Network.dyn_peer[23] 	lookupHopsSig:mean 	4.2019543973941
scalar Network.dyn_peer[24] 	lookupTimeSig:mean 	0.45402684563758
scalar Network.dyn_peer[24] 	lookupStabilitySig:mean 	0.49384787468702
scalar Network.dyn_peer[24] 	lookupHopsSig:mean 	4.0503355704698
scalar Network.dyn_peer[25] 	lookupTimeSig:mean 	0.49679715302491
scalar Network.dyn_peer[25] 	lookupStabilitySig:mean 	0.43905693950178
scalar Network.dyn_peer[25] 	lookupHopsSig:mean 	4.4875444839858
scalar Network.dyn_peer[26] 	lookupTimeSig:mean 	0.48466898954704
scalar Network.dyn_peer[26] 	lookupStabilitySig:mean 	0.45392953928962
scalar Network.dyn_peer[26] 	lookupHopsSig:mean 	4.3693379790941
scalar Network.dyn_peer[27] 	lookupTimeSig:mean 	0.43586206896552
scalar Network.dyn_peer[27] 	lookupStabilitySig:mean 	0.52361111106544
scalar Network.dyn_peer[27] 	lookupHopsSig:mean 	3.8137931034483
scalar Network.dyn_peer[28] 	lookupTimeSig:mean 	0.43504823151125
scalar Network.dyn_peer[28] 	lookupStabilitySig:mean 	0.52295462664971
scalar Network.dyn_peer[28] 	lookupHopsSig:mean 	3.8167202572347
scalar Network.dyn_peer[29] 	lookupTimeSig:mean 	0.45694915254237
scalar Network.dyn_peer[29] 	lookupStabilitySig:mean 	0.49096045191005
scalar Network.dyn_peer[29] 	lookupHopsSig:mean 	4.0745762711864
scalar Network.dyn_peer[30] 	lookupTimeSig:mean 	0.49462365591398
scalar Network.dyn_peer[30] 	lookupStabilitySig:mean 	0.44185583432302
scalar Network.dyn_peer[30] 	lookupHopsSig:mean 	4.4659498207885
scalar Network.dyn_peer[31] 	lookupTimeSig:mean 	0.47306397306397
scalar Network.dyn_peer[31] 	lookupStabilitySig:mean 	0.47432659920117
scalar Network.dyn_peer[31] 	lookupHopsSig:mean 	4.2087542087542
