version 2
run Stability-norelink-67-20130525-23:18:27-22103
attr configname Stability-norelink
attr datetime 20130525-23:18:27
attr experiment Stability
attr inifile omnetpp.ini
attr iterationvars $0=1e0
attr iterationvars2 "$0=1e0, $repetition=7"
attr measurement $0=1e0
attr network Network
attr processid 22103
attr repetition 7
attr replication #7
attr resultdir results
attr runnumber 67
attr seedset 67

scalar Network.dyn_peer[0] 	lookupTimeSig:mean 	0.47508532423208
scalar Network.dyn_peer[0] 	lookupStabilitySig:mean 	0.46715017064846
scalar Network.dyn_peer[0] 	lookupHopsSig:mean 	4.2627986348123
scalar Network.dyn_peer[1] 	lookupTimeSig:mean 	0.45506756756757
scalar Network.dyn_peer[1] 	lookupStabilitySig:mean 	0.48704954954116
scalar Network.dyn_peer[1] 	lookupHopsSig:mean 	4.1047297297297
scalar Network.dyn_peer[2] 	lookupTimeSig:mean 	0.46180555555556
scalar Network.dyn_peer[2] 	lookupStabilitySig:mean 	0.48297646600339
scalar Network.dyn_peer[2] 	lookupHopsSig:mean 	4.1388888888889
scalar Network.dyn_peer[3] 	lookupTimeSig:mean 	0.46714801444043
scalar Network.dyn_peer[3] 	lookupStabilitySig:mean 	0.47733654221688
scalar Network.dyn_peer[3] 	lookupHopsSig:mean 	4.1841155234657
scalar Network.dyn_peer[4] 	lookupTimeSig:mean 	0.45986394557823
scalar Network.dyn_peer[4] 	lookupStabilitySig:mean 	0.49116591080314
scalar Network.dyn_peer[4] 	lookupHopsSig:mean 	4.0714285714286
scalar Network.dyn_peer[5] 	lookupTimeSig:mean 	0.47929824561404
scalar Network.dyn_peer[5] 	lookupStabilitySig:mean 	0.4636939571092
scalar Network.dyn_peer[5] 	lookupHopsSig:mean 	4.2912280701754
scalar Network.dyn_peer[6] 	lookupTimeSig:mean 	0.48706293706294
scalar Network.dyn_peer[6] 	lookupStabilitySig:mean 	0.44711538461538
scalar Network.dyn_peer[6] 	lookupHopsSig:mean 	4.4230769230769
scalar Network.dyn_peer[7] 	lookupTimeSig:mean 	0.48020134228188
scalar Network.dyn_peer[7] 	lookupStabilitySig:mean 	0.46131618190932
scalar Network.dyn_peer[7] 	lookupHopsSig:mean 	4.3120805369128
scalar Network.dyn_peer[8] 	lookupTimeSig:mean 	0.46296296296296
scalar Network.dyn_peer[8] 	lookupStabilitySig:mean 	0.48737373737374
scalar Network.dyn_peer[8] 	lookupHopsSig:mean 	4.1010101010101
scalar Network.dyn_peer[9] 	lookupTimeSig:mean 	0.5
scalar Network.dyn_peer[9] 	lookupStabilitySig:mean 	0.43525179856115
scalar Network.dyn_peer[9] 	lookupHopsSig:mean 	4.5179856115108
scalar Network.dyn_peer[10] 	lookupTimeSig:mean 	0.48842443729904
scalar Network.dyn_peer[10] 	lookupStabilitySig:mean 	0.45578778135048
scalar Network.dyn_peer[10] 	lookupHopsSig:mean 	4.3536977491961
scalar Network.dyn_peer[11] 	lookupTimeSig:mean 	0.46757679180887
scalar Network.dyn_peer[11] 	lookupStabilitySig:mean 	0.47610921501706
scalar Network.dyn_peer[11] 	lookupHopsSig:mean 	4.1911262798635
scalar Network.dyn_peer[12] 	lookupTimeSig:mean 	0.5007299270073
scalar Network.dyn_peer[12] 	lookupStabilitySig:mean 	0.43633414446002
scalar Network.dyn_peer[12] 	lookupHopsSig:mean 	4.514598540146
scalar Network.dyn_peer[13] 	lookupTimeSig:mean 	0.50802919708029
scalar Network.dyn_peer[13] 	lookupStabilitySig:mean 	0.41605839416058
scalar Network.dyn_peer[13] 	lookupHopsSig:mean 	4.6715328467153
scalar Network.dyn_peer[14] 	lookupTimeSig:mean 	0.47120743034056
scalar Network.dyn_peer[14] 	lookupStabilitySig:mean 	0.47794117647059
scalar Network.dyn_peer[14] 	lookupHopsSig:mean 	4.1764705882353
scalar Network.dyn_peer[15] 	lookupTimeSig:mean 	0.50342205323194
scalar Network.dyn_peer[15] 	lookupStabilitySig:mean 	0.42374313472568
scalar Network.dyn_peer[15] 	lookupHopsSig:mean 	4.6121673003802
scalar Network.dyn_peer[16] 	lookupTimeSig:mean 	0.43533123028391
scalar Network.dyn_peer[16] 	lookupStabilitySig:mean 	0.51910269885597
scalar Network.dyn_peer[16] 	lookupHopsSig:mean 	3.8517350157729
scalar Network.dyn_peer[17] 	lookupTimeSig:mean 	0.45174603174603
scalar Network.dyn_peer[17] 	lookupStabilitySig:mean 	0.50767195764042
scalar Network.dyn_peer[17] 	lookupHopsSig:mean 	3.9396825396825
scalar Network.dyn_peer[18] 	lookupTimeSig:mean 	0.42445820433437
scalar Network.dyn_peer[18] 	lookupStabilitySig:mean 	0.53121775010422
scalar Network.dyn_peer[18] 	lookupHopsSig:mean 	3.7554179566563
scalar Network.dyn_peer[19] 	lookupTimeSig:mean 	0.48848920863309
scalar Network.dyn_peer[19] 	lookupStabilitySig:mean 	0.44919064748201
scalar Network.dyn_peer[19] 	lookupHopsSig:mean 	4.4064748201439
scalar Network.dyn_peer[20] 	lookupTimeSig:mean 	0.43471337579618
scalar Network.dyn_peer[20] 	lookupStabilitySig:mean 	0.5206121725926
scalar Network.dyn_peer[20] 	lookupHopsSig:mean 	3.8375796178344
scalar Network.dyn_peer[21] 	lookupTimeSig:mean 	0.43542319749216
scalar Network.dyn_peer[21] 	lookupStabilitySig:mean 	0.51920062695925
scalar Network.dyn_peer[21] 	lookupHopsSig:mean 	3.846394984326
scalar Network.dyn_peer[22] 	lookupTimeSig:mean 	0.51595744680851
scalar Network.dyn_peer[22] 	lookupStabilitySig:mean 	0.40637312840063
scalar Network.dyn_peer[22] 	lookupHopsSig:mean 	4.7517730496454
scalar Network.dyn_peer[23] 	lookupTimeSig:mean 	0.46666666666667
scalar Network.dyn_peer[23] 	lookupStabilitySig:mean 	0.4776936026936
scalar Network.dyn_peer[23] 	lookupHopsSig:mean 	4.1784511784512
scalar Network.dyn_peer[24] 	lookupTimeSig:mean 	0.51941391941392
scalar Network.dyn_peer[24] 	lookupStabilitySig:mean 	0.40252340252037
scalar Network.dyn_peer[24] 	lookupHopsSig:mean 	4.7802197802198
scalar Network.dyn_peer[25] 	lookupTimeSig:mean 	0.46578073089701
scalar Network.dyn_peer[25] 	lookupStabilitySig:mean 	0.47789774820258
scalar Network.dyn_peer[25] 	lookupHopsSig:mean 	4.1794019933555
scalar Network.dyn_peer[26] 	lookupTimeSig:mean 	0.45981012658228
scalar Network.dyn_peer[26] 	lookupStabilitySig:mean 	0.48756153296821
scalar Network.dyn_peer[26] 	lookupHopsSig:mean 	4.1012658227848
scalar Network.dyn_peer[27] 	lookupTimeSig:mean 	0.47549668874172
scalar Network.dyn_peer[27] 	lookupStabilitySig:mean 	0.46523178807947
scalar Network.dyn_peer[27] 	lookupHopsSig:mean 	4.2781456953642
scalar Network.dyn_peer[28] 	lookupTimeSig:mean 	0.47340067340067
scalar Network.dyn_peer[28] 	lookupStabilitySig:mean 	0.46296296296296
scalar Network.dyn_peer[28] 	lookupHopsSig:mean 	4.2996632996633
scalar Network.dyn_peer[29] 	lookupTimeSig:mean 	0.45798045602606
scalar Network.dyn_peer[29] 	lookupStabilitySig:mean 	0.48543250089942
scalar Network.dyn_peer[29] 	lookupHopsSig:mean 	4.1172638436482
scalar Network.dyn_peer[30] 	lookupTimeSig:mean 	0.45
scalar Network.dyn_peer[30] 	lookupStabilitySig:mean 	0.50323498961718
scalar Network.dyn_peer[30] 	lookupHopsSig:mean 	3.9751552795031
scalar Network.dyn_peer[31] 	lookupTimeSig:mean 	0.46048109965636
scalar Network.dyn_peer[31] 	lookupStabilitySig:mean 	0.48582474226804
scalar Network.dyn_peer[31] 	lookupHopsSig:mean 	4.1134020618557
