version 2
run Stability-norelink-100-20130525-23:20:41-22103
attr configname Stability-norelink
attr datetime 20130525-23:20:41
attr experiment Stability
attr inifile omnetpp.ini
attr iterationvars $0=1e-4
attr iterationvars2 "$0=1e-4, $repetition=0"
attr measurement $0=1e-4
attr network Network
attr processid 22103
attr repetition 0
attr replication #0
attr resultdir results
attr runnumber 100
attr seedset 100

scalar Network.dyn_peer[0] 	lookupTimeSig:mean 	0.50385964912281
scalar Network.dyn_peer[0] 	lookupStabilitySig:mean 	0.43313840136193
scalar Network.dyn_peer[0] 	lookupHopsSig:mean 	4.540350877193
scalar Network.dyn_peer[1] 	lookupTimeSig:mean 	0.46732673267327
scalar Network.dyn_peer[1] 	lookupStabilitySig:mean 	0.47630179673433
scalar Network.dyn_peer[1] 	lookupHopsSig:mean 	4.1980198019802
scalar Network.dyn_peer[2] 	lookupTimeSig:mean 	0.45577557755776
scalar Network.dyn_peer[2] 	lookupStabilitySig:mean 	0.49110744406681
scalar Network.dyn_peer[2] 	lookupHopsSig:mean 	4.0726072607261
scalar Network.dyn_peer[3] 	lookupTimeSig:mean 	0.46351351351351
scalar Network.dyn_peer[3] 	lookupStabilitySig:mean 	0.47771208708149
scalar Network.dyn_peer[3] 	lookupHopsSig:mean 	4.1790540540541
scalar Network.dyn_peer[4] 	lookupTimeSig:mean 	0.43555555555556
scalar Network.dyn_peer[4] 	lookupStabilitySig:mean 	0.52072310398022
scalar Network.dyn_peer[4] 	lookupHopsSig:mean 	3.8380952380952
scalar Network.dyn_peer[5] 	lookupTimeSig:mean 	0.46602564102564
scalar Network.dyn_peer[5] 	lookupStabilitySig:mean 	0.48116987179487
scalar Network.dyn_peer[5] 	lookupHopsSig:mean 	4.150641025641
scalar Network.dyn_peer[6] 	lookupTimeSig:mean 	0.46042402826855
scalar Network.dyn_peer[6] 	lookupStabilitySig:mean 	0.4845406360424
scalar Network.dyn_peer[6] 	lookupHopsSig:mean 	4.1236749116608
scalar Network.dyn_peer[7] 	lookupTimeSig:mean 	0.47534246575342
scalar Network.dyn_peer[7] 	lookupStabilitySig:mean 	0.46898782334916
scalar Network.dyn_peer[7] 	lookupHopsSig:mean 	4.2534246575342
scalar Network.dyn_peer[8] 	lookupTimeSig:mean 	0.45876623376623
scalar Network.dyn_peer[8] 	lookupStabilitySig:mean 	0.48989898987211
scalar Network.dyn_peer[8] 	lookupHopsSig:mean 	4.0844155844156
scalar Network.dyn_peer[9] 	lookupTimeSig:mean 	0.5007299270073
scalar Network.dyn_peer[9] 	lookupStabilitySig:mean 	0.43050486613473
scalar Network.dyn_peer[9] 	lookupHopsSig:mean 	4.5583941605839
scalar Network.dyn_peer[10] 	lookupTimeSig:mean 	0.4898916967509
scalar Network.dyn_peer[10] 	lookupStabilitySig:mean 	0.44334135578428
scalar Network.dyn_peer[10] 	lookupHopsSig:mean 	4.4548736462094
scalar Network.dyn_peer[11] 	lookupTimeSig:mean 	0.43215434083601
scalar Network.dyn_peer[11] 	lookupStabilitySig:mean 	0.51768488745981
scalar Network.dyn_peer[11] 	lookupHopsSig:mean 	3.8585209003215
scalar Network.dyn_peer[12] 	lookupTimeSig:mean 	0.48306188925081
scalar Network.dyn_peer[12] 	lookupStabilitySig:mean 	0.45982627565775
scalar Network.dyn_peer[12] 	lookupHopsSig:mean 	4.3257328990228
scalar Network.dyn_peer[13] 	lookupTimeSig:mean 	0.45257731958763
scalar Network.dyn_peer[13] 	lookupStabilitySig:mean 	0.49365215730626
scalar Network.dyn_peer[13] 	lookupHopsSig:mean 	4.0515463917526
scalar Network.dyn_peer[14] 	lookupTimeSig:mean 	0.45016722408027
scalar Network.dyn_peer[14] 	lookupStabilitySig:mean 	0.49447231498052
scalar Network.dyn_peer[14] 	lookupHopsSig:mean 	4.0535117056856
scalar Network.dyn_peer[15] 	lookupTimeSig:mean 	0.48646864686469
scalar Network.dyn_peer[15] 	lookupStabilitySig:mean 	0.4463696369637
scalar Network.dyn_peer[15] 	lookupHopsSig:mean 	4.4290429042904
scalar Network.dyn_peer[16] 	lookupTimeSig:mean 	0.43867924528302
scalar Network.dyn_peer[16] 	lookupStabilitySig:mean 	0.51899895177416
scalar Network.dyn_peer[16] 	lookupHopsSig:mean 	3.8490566037736
scalar Network.dyn_peer[17] 	lookupTimeSig:mean 	0.46319218241042
scalar Network.dyn_peer[17] 	lookupStabilitySig:mean 	0.48099891419131
scalar Network.dyn_peer[17] 	lookupHopsSig:mean 	4.1530944625407
scalar Network.dyn_peer[18] 	lookupTimeSig:mean 	0.42790697674419
scalar Network.dyn_peer[18] 	lookupStabilitySig:mean 	0.52044112217981
scalar Network.dyn_peer[18] 	lookupHopsSig:mean 	3.8372093023256
scalar Network.dyn_peer[19] 	lookupTimeSig:mean 	0.45833333333333
scalar Network.dyn_peer[19] 	lookupStabilitySig:mean 	0.49112654296267
scalar Network.dyn_peer[19] 	lookupHopsSig:mean 	4.0798611111111
scalar Network.dyn_peer[20] 	lookupTimeSig:mean 	0.48940809968847
scalar Network.dyn_peer[20] 	lookupStabilitySig:mean 	0.44742990654206
scalar Network.dyn_peer[20] 	lookupHopsSig:mean 	4.4205607476636
scalar Network.dyn_peer[21] 	lookupTimeSig:mean 	0.45869565217391
scalar Network.dyn_peer[21] 	lookupStabilitySig:mean 	0.48421325039419
scalar Network.dyn_peer[21] 	lookupHopsSig:mean 	4.1304347826087
scalar Network.dyn_peer[22] 	lookupTimeSig:mean 	0.46631944444444
scalar Network.dyn_peer[22] 	lookupStabilitySig:mean 	0.4754050925581
scalar Network.dyn_peer[22] 	lookupHopsSig:mean 	4.2013888888889
scalar Network.dyn_peer[23] 	lookupTimeSig:mean 	0.47508417508418
scalar Network.dyn_peer[23] 	lookupStabilitySig:mean 	0.46651702206143
scalar Network.dyn_peer[23] 	lookupHopsSig:mean 	4.2693602693603
scalar Network.dyn_peer[24] 	lookupTimeSig:mean 	0.45699658703072
scalar Network.dyn_peer[24] 	lookupStabilitySig:mean 	0.48378839590444
scalar Network.dyn_peer[24] 	lookupHopsSig:mean 	4.1296928327645
scalar Network.dyn_peer[25] 	lookupTimeSig:mean 	0.46607142857143
scalar Network.dyn_peer[25] 	lookupStabilitySig:mean 	0.47504960317165
scalar Network.dyn_peer[25] 	lookupHopsSig:mean 	4.2
scalar Network.dyn_peer[26] 	lookupTimeSig:mean 	0.48152173913043
scalar Network.dyn_peer[26] 	lookupStabilitySig:mean 	0.45385466988428
scalar Network.dyn_peer[26] 	lookupHopsSig:mean 	4.3695652173913
scalar Network.dyn_peer[27] 	lookupTimeSig:mean 	0.46254295532646
scalar Network.dyn_peer[27] 	lookupStabilitySig:mean 	0.48401107288308
scalar Network.dyn_peer[27] 	lookupHopsSig:mean 	4.1305841924399
scalar Network.dyn_peer[28] 	lookupTimeSig:mean 	0.4843853820598
scalar Network.dyn_peer[28] 	lookupStabilitySig:mean 	0.44785898854566
scalar Network.dyn_peer[28] 	lookupHopsSig:mean 	4.4186046511628
scalar Network.dyn_peer[29] 	lookupTimeSig:mean 	0.47052631578947
scalar Network.dyn_peer[29] 	lookupStabilitySig:mean 	0.47256335281489
scalar Network.dyn_peer[29] 	lookupHopsSig:mean 	4.2245614035088
scalar Network.dyn_peer[30] 	lookupTimeSig:mean 	0.48
scalar Network.dyn_peer[30] 	lookupStabilitySig:mean 	0.45765107211314
scalar Network.dyn_peer[30] 	lookupHopsSig:mean 	4.340350877193
scalar Network.dyn_peer[31] 	lookupTimeSig:mean 	0.46456456456457
scalar Network.dyn_peer[31] 	lookupStabilitySig:mean 	0.48498498498498
scalar Network.dyn_peer[31] 	lookupHopsSig:mean 	4.1201201201201
