version 2
run Stability-norelink-141-20130525-23:23:27-22103
attr configname Stability-norelink
attr datetime 20130525-23:23:27
attr experiment Stability
attr inifile omnetpp.ini
attr iterationvars $0=1e-8
attr iterationvars2 "$0=1e-8, $repetition=1"
attr measurement $0=1e-8
attr network Network
attr processid 22103
attr repetition 1
attr replication #1
attr resultdir results
attr runnumber 141
attr seedset 141

scalar Network.dyn_peer[0] 	lookupTimeSig:mean 	0.48917910447761
scalar Network.dyn_peer[0] 	lookupStabilitySig:mean 	0.44682835815335
scalar Network.dyn_peer[0] 	lookupHopsSig:mean 	4.4291044776119
scalar Network.dyn_peer[1] 	lookupTimeSig:mean 	0.4819397993311
scalar Network.dyn_peer[1] 	lookupStabilitySig:mean 	0.45652173913043
scalar Network.dyn_peer[1] 	lookupHopsSig:mean 	4.3478260869565
scalar Network.dyn_peer[2] 	lookupTimeSig:mean 	0.46514084507042
scalar Network.dyn_peer[2] 	lookupStabilitySig:mean 	0.47985133019761
scalar Network.dyn_peer[2] 	lookupHopsSig:mean 	4.1619718309859
scalar Network.dyn_peer[3] 	lookupTimeSig:mean 	0.47623762376238
scalar Network.dyn_peer[3] 	lookupStabilitySig:mean 	0.46548404837205
scalar Network.dyn_peer[3] 	lookupHopsSig:mean 	4.2772277227723
scalar Network.dyn_peer[4] 	lookupTimeSig:mean 	0.47931034482759
scalar Network.dyn_peer[4] 	lookupStabilitySig:mean 	0.46293103448276
scalar Network.dyn_peer[4] 	lookupHopsSig:mean 	4.2965517241379
scalar Network.dyn_peer[5] 	lookupTimeSig:mean 	0.49039145907473
scalar Network.dyn_peer[5] 	lookupStabilitySig:mean 	0.43920521941898
scalar Network.dyn_peer[5] 	lookupHopsSig:mean 	4.4875444839858
scalar Network.dyn_peer[6] 	lookupTimeSig:mean 	0.46599326599327
scalar Network.dyn_peer[6] 	lookupStabilitySig:mean 	0.46927609427609
scalar Network.dyn_peer[6] 	lookupHopsSig:mean 	4.2457912457912
scalar Network.dyn_peer[7] 	lookupTimeSig:mean 	0.47894736842105
scalar Network.dyn_peer[7] 	lookupStabilitySig:mean 	0.47282421731912
scalar Network.dyn_peer[7] 	lookupHopsSig:mean 	4.2198142414861
scalar Network.dyn_peer[8] 	lookupTimeSig:mean 	0.47105263157895
scalar Network.dyn_peer[8] 	lookupStabilitySig:mean 	0.47450657894737
scalar Network.dyn_peer[8] 	lookupHopsSig:mean 	4.2039473684211
scalar Network.dyn_peer[9] 	lookupTimeSig:mean 	0.45891719745223
scalar Network.dyn_peer[9] 	lookupStabilitySig:mean 	0.49270169845053
scalar Network.dyn_peer[9] 	lookupHopsSig:mean 	4.0605095541401
scalar Network.dyn_peer[10] 	lookupTimeSig:mean 	0.50416666666667
scalar Network.dyn_peer[10] 	lookupStabilitySig:mean 	0.42216435180874
scalar Network.dyn_peer[10] 	lookupHopsSig:mean 	4.625
scalar Network.dyn_peer[11] 	lookupTimeSig:mean 	0.46935483870968
scalar Network.dyn_peer[11] 	lookupStabilitySig:mean 	0.47293906783865
scalar Network.dyn_peer[11] 	lookupHopsSig:mean 	4.2225806451613
scalar Network.dyn_peer[12] 	lookupTimeSig:mean 	0.48873720136519
scalar Network.dyn_peer[12] 	lookupStabilitySig:mean 	0.44781001130875
scalar Network.dyn_peer[12] 	lookupHopsSig:mean 	4.419795221843
scalar Network.dyn_peer[13] 	lookupTimeSig:mean 	0.47623762376238
scalar Network.dyn_peer[13] 	lookupStabilitySig:mean 	0.46699669957161
scalar Network.dyn_peer[13] 	lookupHopsSig:mean 	4.2673267326733
scalar Network.dyn_peer[14] 	lookupTimeSig:mean 	0.4742474916388
scalar Network.dyn_peer[14] 	lookupStabilitySig:mean 	0.46302489779366
scalar Network.dyn_peer[14] 	lookupHopsSig:mean 	4.2976588628763
scalar Network.dyn_peer[15] 	lookupTimeSig:mean 	0.48784722222222
scalar Network.dyn_peer[15] 	lookupStabilitySig:mean 	0.44651813267006
scalar Network.dyn_peer[15] 	lookupHopsSig:mean 	4.4305555555556
scalar Network.dyn_peer[16] 	lookupTimeSig:mean 	0.45572755417957
scalar Network.dyn_peer[16] 	lookupStabilitySig:mean 	0.49376504976683
scalar Network.dyn_peer[16] 	lookupHopsSig:mean 	4.0526315789474
scalar Network.dyn_peer[17] 	lookupTimeSig:mean 	0.45761589403974
scalar Network.dyn_peer[17] 	lookupStabilitySig:mean 	0.48716887417219
scalar Network.dyn_peer[17] 	lookupHopsSig:mean 	4.1026490066225
scalar Network.dyn_peer[18] 	lookupTimeSig:mean 	0.44232081911263
scalar Network.dyn_peer[18] 	lookupStabilitySig:mean 	0.50981228668942
scalar Network.dyn_peer[18] 	lookupHopsSig:mean 	3.9215017064846
scalar Network.dyn_peer[19] 	lookupTimeSig:mean 	0.47684563758389
scalar Network.dyn_peer[19] 	lookupStabilitySig:mean 	0.45945190143265
scalar Network.dyn_peer[19] 	lookupHopsSig:mean 	4.3288590604027
scalar Network.dyn_peer[20] 	lookupTimeSig:mean 	0.48
scalar Network.dyn_peer[20] 	lookupStabilitySig:mean 	0.46781609191977
scalar Network.dyn_peer[20] 	lookupHopsSig:mean 	4.2586206896552
scalar Network.dyn_peer[21] 	lookupTimeSig:mean 	0.50654545454545
scalar Network.dyn_peer[21] 	lookupStabilitySig:mean 	0.42863636352799
scalar Network.dyn_peer[21] 	lookupHopsSig:mean 	4.5745454545455
scalar Network.dyn_peer[22] 	lookupTimeSig:mean 	0.47741935483871
scalar Network.dyn_peer[22] 	lookupStabilitySig:mean 	0.46088709677419
scalar Network.dyn_peer[22] 	lookupHopsSig:mean 	4.3129032258065
scalar Network.dyn_peer[23] 	lookupTimeSig:mean 	0.47048611111111
scalar Network.dyn_peer[23] 	lookupStabilitySig:mean 	0.47743055555556
scalar Network.dyn_peer[23] 	lookupHopsSig:mean 	4.1805555555556
scalar Network.dyn_peer[24] 	lookupTimeSig:mean 	0.42943143812709
scalar Network.dyn_peer[24] 	lookupStabilitySig:mean 	0.52457264952835
scalar Network.dyn_peer[24] 	lookupHopsSig:mean 	3.8060200668896
scalar Network.dyn_peer[25] 	lookupTimeSig:mean 	0.48825622775801
scalar Network.dyn_peer[25] 	lookupStabilitySig:mean 	0.45091933563511
scalar Network.dyn_peer[25] 	lookupHopsSig:mean 	4.3950177935943
scalar Network.dyn_peer[26] 	lookupTimeSig:mean 	0.4932384341637
scalar Network.dyn_peer[26] 	lookupStabilitySig:mean 	0.44093515222819
scalar Network.dyn_peer[26] 	lookupHopsSig:mean 	4.4733096085409
scalar Network.dyn_peer[27] 	lookupTimeSig:mean 	0.47920792079208
scalar Network.dyn_peer[27] 	lookupStabilitySig:mean 	0.46965529872934
scalar Network.dyn_peer[27] 	lookupHopsSig:mean 	4.2475247524752
scalar Network.dyn_peer[28] 	lookupTimeSig:mean 	0.46712328767123
scalar Network.dyn_peer[28] 	lookupStabilitySig:mean 	0.48054604255275
scalar Network.dyn_peer[28] 	lookupHopsSig:mean 	4.1609589041096
scalar Network.dyn_peer[29] 	lookupTimeSig:mean 	0.45533980582524
scalar Network.dyn_peer[29] 	lookupStabilitySig:mean 	0.49541531814244
scalar Network.dyn_peer[29] 	lookupHopsSig:mean 	4.0388349514563
scalar Network.dyn_peer[30] 	lookupTimeSig:mean 	0.43625
scalar Network.dyn_peer[30] 	lookupStabilitySig:mean 	0.51458333332557
scalar Network.dyn_peer[30] 	lookupHopsSig:mean 	3.884375
scalar Network.dyn_peer[31] 	lookupTimeSig:mean 	0.46632996632997
scalar Network.dyn_peer[31] 	lookupStabilitySig:mean 	0.48526936026936
scalar Network.dyn_peer[31] 	lookupHopsSig:mean 	4.1178451178451
