version 2
run Stability-norelink-121-20130525-23:22:07-22103
attr configname Stability-norelink
attr datetime 20130525-23:22:07
attr experiment Stability
attr inifile omnetpp.ini
attr iterationvars $0=1e-6
attr iterationvars2 "$0=1e-6, $repetition=1"
attr measurement $0=1e-6
attr network Network
attr processid 22103
attr repetition 1
attr replication #1
attr resultdir results
attr runnumber 121
attr seedset 121

scalar Network.dyn_peer[0] 	lookupTimeSig:mean 	0.50111524163569
scalar Network.dyn_peer[0] 	lookupStabilitySig:mean 	0.43360181742774
scalar Network.dyn_peer[0] 	lookupHopsSig:mean 	4.5315985130112
scalar Network.dyn_peer[1] 	lookupTimeSig:mean 	0.48006872852234
scalar Network.dyn_peer[1] 	lookupStabilitySig:mean 	0.46091065286976
scalar Network.dyn_peer[1] 	lookupHopsSig:mean 	4.3161512027491
scalar Network.dyn_peer[2] 	lookupTimeSig:mean 	0.47079365079365
scalar Network.dyn_peer[2] 	lookupStabilitySig:mean 	0.47870370357756
scalar Network.dyn_peer[2] 	lookupHopsSig:mean 	4.1777777777778
scalar Network.dyn_peer[3] 	lookupTimeSig:mean 	0.46722408026756
scalar Network.dyn_peer[3] 	lookupStabilitySig:mean 	0.47956150119819
scalar Network.dyn_peer[3] 	lookupHopsSig:mean 	4.1672240802676
scalar Network.dyn_peer[4] 	lookupTimeSig:mean 	0.48520900321543
scalar Network.dyn_peer[4] 	lookupStabilitySig:mean 	0.45243837083076
scalar Network.dyn_peer[4] 	lookupHopsSig:mean 	4.3826366559486
scalar Network.dyn_peer[5] 	lookupTimeSig:mean 	0.47225806451613
scalar Network.dyn_peer[5] 	lookupStabilitySig:mean 	0.47526881718828
scalar Network.dyn_peer[5] 	lookupHopsSig:mean 	4.2
scalar Network.dyn_peer[6] 	lookupTimeSig:mean 	0.45962732919255
scalar Network.dyn_peer[6] 	lookupStabilitySig:mean 	0.49150276029054
scalar Network.dyn_peer[6] 	lookupHopsSig:mean 	4.0776397515528
scalar Network.dyn_peer[7] 	lookupTimeSig:mean 	0.46949685534591
scalar Network.dyn_peer[7] 	lookupStabilitySig:mean 	0.48082634506735
scalar Network.dyn_peer[7] 	lookupHopsSig:mean 	4.1572327044025
scalar Network.dyn_peer[8] 	lookupTimeSig:mean 	0.46040268456376
scalar Network.dyn_peer[8] 	lookupStabilitySig:mean 	0.48256897836324
scalar Network.dyn_peer[8] 	lookupHopsSig:mean 	4.1409395973154
scalar Network.dyn_peer[9] 	lookupTimeSig:mean 	0.46891025641026
scalar Network.dyn_peer[9] 	lookupStabilitySig:mean 	0.48152599712977
scalar Network.dyn_peer[9] 	lookupHopsSig:mean 	4.150641025641
scalar Network.dyn_peer[10] 	lookupTimeSig:mean 	0.49525423728814
scalar Network.dyn_peer[10] 	lookupStabilitySig:mean 	0.44661016944101
scalar Network.dyn_peer[10] 	lookupHopsSig:mean 	4.4305084745763
scalar Network.dyn_peer[11] 	lookupTimeSig:mean 	0.47353951890034
scalar Network.dyn_peer[11] 	lookupStabilitySig:mean 	0.47207903769827
scalar Network.dyn_peer[11] 	lookupHopsSig:mean 	4.2268041237113
scalar Network.dyn_peer[12] 	lookupTimeSig:mean 	0.49695945945946
scalar Network.dyn_peer[12] 	lookupStabilitySig:mean 	0.44115990984279
scalar Network.dyn_peer[12] 	lookupHopsSig:mean 	4.472972972973
scalar Network.dyn_peer[13] 	lookupTimeSig:mean 	0.48166089965398
scalar Network.dyn_peer[13] 	lookupStabilitySig:mean 	0.45790080736459
scalar Network.dyn_peer[13] 	lookupHopsSig:mean 	4.3391003460208
scalar Network.dyn_peer[14] 	lookupTimeSig:mean 	0.49206896551724
scalar Network.dyn_peer[14] 	lookupStabilitySig:mean 	0.4445402298508
scalar Network.dyn_peer[14] 	lookupHopsSig:mean 	4.4448275862069
scalar Network.dyn_peer[15] 	lookupTimeSig:mean 	0.48523489932886
scalar Network.dyn_peer[15] 	lookupStabilitySig:mean 	0.45329977621968
scalar Network.dyn_peer[15] 	lookupHopsSig:mean 	4.3758389261745
scalar Network.dyn_peer[16] 	lookupTimeSig:mean 	0.49464285714286
scalar Network.dyn_peer[16] 	lookupStabilitySig:mean 	0.44389880943511
scalar Network.dyn_peer[16] 	lookupHopsSig:mean 	4.4535714285714
scalar Network.dyn_peer[17] 	lookupTimeSig:mean 	0.48464052287582
scalar Network.dyn_peer[17] 	lookupStabilitySig:mean 	0.45433914303487
scalar Network.dyn_peer[17] 	lookupHopsSig:mean 	4.3692810457516
scalar Network.dyn_peer[18] 	lookupTimeSig:mean 	0.44933333333333
scalar Network.dyn_peer[18] 	lookupStabilitySig:mean 	0.50162037029862
scalar Network.dyn_peer[18] 	lookupHopsSig:mean 	3.99
scalar Network.dyn_peer[19] 	lookupTimeSig:mean 	0.42701863354037
scalar Network.dyn_peer[19] 	lookupStabilitySig:mean 	0.53161663214983
scalar Network.dyn_peer[19] 	lookupHopsSig:mean 	3.7484472049689
scalar Network.dyn_peer[20] 	lookupTimeSig:mean 	0.459375
scalar Network.dyn_peer[20] 	lookupStabilitySig:mean 	0.48936631940305
scalar Network.dyn_peer[20] 	lookupHopsSig:mean 	4.0875
scalar Network.dyn_peer[21] 	lookupTimeSig:mean 	0.48709677419355
scalar Network.dyn_peer[21] 	lookupStabilitySig:mean 	0.44713261648746
scalar Network.dyn_peer[21] 	lookupHopsSig:mean 	4.4229390681004
scalar Network.dyn_peer[22] 	lookupTimeSig:mean 	0.51206896551724
scalar Network.dyn_peer[22] 	lookupStabilitySig:mean 	0.42188697308302
scalar Network.dyn_peer[22] 	lookupHopsSig:mean 	4.6275862068966
scalar Network.dyn_peer[23] 	lookupTimeSig:mean 	0.46950354609929
scalar Network.dyn_peer[23] 	lookupStabilitySig:mean 	0.46759259254269
scalar Network.dyn_peer[23] 	lookupHopsSig:mean 	4.2624113475177
scalar Network.dyn_peer[24] 	lookupTimeSig:mean 	0.50296052631579
scalar Network.dyn_peer[24] 	lookupStabilitySig:mean 	0.43229166663399
scalar Network.dyn_peer[24] 	lookupHopsSig:mean 	4.5427631578947
scalar Network.dyn_peer[25] 	lookupTimeSig:mean 	0.51423487544484
scalar Network.dyn_peer[25] 	lookupStabilitySig:mean 	0.41602412019972
scalar Network.dyn_peer[25] 	lookupHopsSig:mean 	4.6725978647687
scalar Network.dyn_peer[26] 	lookupTimeSig:mean 	0.45048859934853
scalar Network.dyn_peer[26] 	lookupStabilitySig:mean 	0.49728555914245
scalar Network.dyn_peer[26] 	lookupHopsSig:mean 	4.0228013029316
scalar Network.dyn_peer[27] 	lookupTimeSig:mean 	0.48214285714286
scalar Network.dyn_peer[27] 	lookupStabilitySig:mean 	0.45833333332527
scalar Network.dyn_peer[27] 	lookupHopsSig:mean 	4.3344155844156
scalar Network.dyn_peer[28] 	lookupTimeSig:mean 	0.49560810810811
scalar Network.dyn_peer[28] 	lookupStabilitySig:mean 	0.43529466957458
scalar Network.dyn_peer[28] 	lookupHopsSig:mean 	4.5202702702703
scalar Network.dyn_peer[29] 	lookupTimeSig:mean 	0.49543859649123
scalar Network.dyn_peer[29] 	lookupStabilitySig:mean 	0.44010721215031
scalar Network.dyn_peer[29] 	lookupHopsSig:mean 	4.4877192982456
scalar Network.dyn_peer[30] 	lookupTimeSig:mean 	0.49006849315069
scalar Network.dyn_peer[30] 	lookupStabilitySig:mean 	0.4480117959519
scalar Network.dyn_peer[30] 	lookupHopsSig:mean 	4.4212328767123
scalar Network.dyn_peer[31] 	lookupTimeSig:mean 	0.49038461538462
scalar Network.dyn_peer[31] 	lookupStabilitySig:mean 	0.44987535600861
scalar Network.dyn_peer[31] 	lookupHopsSig:mean 	4.4102564102564
