version 2
run Stability-norelink-66-20130525-23:18:23-22103
attr configname Stability-norelink
attr datetime 20130525-23:18:23
attr experiment Stability
attr inifile omnetpp.ini
attr iterationvars $0=1e0
attr iterationvars2 "$0=1e0, $repetition=6"
attr measurement $0=1e0
attr network Network
attr processid 22103
attr repetition 6
attr replication #6
attr resultdir results
attr runnumber 66
attr seedset 66

scalar Network.dyn_peer[0] 	lookupTimeSig:mean 	0.45948553054662
scalar Network.dyn_peer[0] 	lookupStabilitySig:mean 	0.49928545908721
scalar Network.dyn_peer[0] 	lookupHopsSig:mean 	4.0064308681672
scalar Network.dyn_peer[1] 	lookupTimeSig:mean 	0.43613707165109
scalar Network.dyn_peer[1] 	lookupStabilitySig:mean 	0.51644167531502
scalar Network.dyn_peer[1] 	lookupHopsSig:mean 	3.8691588785047
scalar Network.dyn_peer[2] 	lookupTimeSig:mean 	0.476
scalar Network.dyn_peer[2] 	lookupStabilitySig:mean 	0.46708333320916
scalar Network.dyn_peer[2] 	lookupHopsSig:mean 	4.2666666666667
scalar Network.dyn_peer[3] 	lookupTimeSig:mean 	0.49388489208633
scalar Network.dyn_peer[3] 	lookupStabilitySig:mean 	0.4389988009235
scalar Network.dyn_peer[3] 	lookupHopsSig:mean 	4.4892086330935
scalar Network.dyn_peer[4] 	lookupTimeSig:mean 	0.45433333333333
scalar Network.dyn_peer[4] 	lookupStabilitySig:mean 	0.48842592592041
scalar Network.dyn_peer[4] 	lookupHopsSig:mean 	4.0933333333333
scalar Network.dyn_peer[5] 	lookupTimeSig:mean 	0.47307692307692
scalar Network.dyn_peer[5] 	lookupStabilitySig:mean 	0.46498640246325
scalar Network.dyn_peer[5] 	lookupHopsSig:mean 	4.2832167832168
scalar Network.dyn_peer[6] 	lookupTimeSig:mean 	0.45436893203884
scalar Network.dyn_peer[6] 	lookupStabilitySig:mean 	0.49420172593354
scalar Network.dyn_peer[6] 	lookupHopsSig:mean 	4.0485436893204
scalar Network.dyn_peer[7] 	lookupTimeSig:mean 	0.46085409252669
scalar Network.dyn_peer[7] 	lookupStabilitySig:mean 	0.48892843020662
scalar Network.dyn_peer[7] 	lookupHopsSig:mean 	4.0889679715302
scalar Network.dyn_peer[8] 	lookupTimeSig:mean 	0.46931034482759
scalar Network.dyn_peer[8] 	lookupStabilitySig:mean 	0.47054597699437
scalar Network.dyn_peer[8] 	lookupHopsSig:mean 	4.2379310344828
scalar Network.dyn_peer[9] 	lookupTimeSig:mean 	0.47413793103448
scalar Network.dyn_peer[9] 	lookupStabilitySig:mean 	0.47284482758621
scalar Network.dyn_peer[9] 	lookupHopsSig:mean 	4.2172413793103
scalar Network.dyn_peer[10] 	lookupTimeSig:mean 	0.45384615384615
scalar Network.dyn_peer[10] 	lookupStabilitySig:mean 	0.4971664808566
scalar Network.dyn_peer[10] 	lookupHopsSig:mean 	4.0234113712375
scalar Network.dyn_peer[11] 	lookupTimeSig:mean 	0.47567567567568
scalar Network.dyn_peer[11] 	lookupStabilitySig:mean 	0.46546546530885
scalar Network.dyn_peer[11] 	lookupHopsSig:mean 	4.2804054054054
scalar Network.dyn_peer[12] 	lookupTimeSig:mean 	0.48415094339623
scalar Network.dyn_peer[12] 	lookupStabilitySig:mean 	0.45062893078012
scalar Network.dyn_peer[12] 	lookupHopsSig:mean 	4.3962264150943
scalar Network.dyn_peer[13] 	lookupTimeSig:mean 	0.46315789473684
scalar Network.dyn_peer[13] 	lookupStabilitySig:mean 	0.47504873275757
scalar Network.dyn_peer[13] 	lookupHopsSig:mean 	4.2035087719298
scalar Network.dyn_peer[14] 	lookupTimeSig:mean 	0.43569321533923
scalar Network.dyn_peer[14] 	lookupStabilitySig:mean 	0.52572926905303
scalar Network.dyn_peer[14] 	lookupHopsSig:mean 	3.7964601769912
scalar Network.dyn_peer[15] 	lookupTimeSig:mean 	0.4431746031746
scalar Network.dyn_peer[15] 	lookupStabilitySig:mean 	0.51022927675928
scalar Network.dyn_peer[15] 	lookupHopsSig:mean 	3.9238095238095
scalar Network.dyn_peer[16] 	lookupTimeSig:mean 	0.47669172932331
scalar Network.dyn_peer[16] 	lookupStabilitySig:mean 	0.46052631578947
scalar Network.dyn_peer[16] 	lookupHopsSig:mean 	4.3157894736842
scalar Network.dyn_peer[17] 	lookupTimeSig:mean 	0.45921052631579
scalar Network.dyn_peer[17] 	lookupStabilitySig:mean 	0.48396381578947
scalar Network.dyn_peer[17] 	lookupHopsSig:mean 	4.1282894736842
scalar Network.dyn_peer[18] 	lookupTimeSig:mean 	0.44512987012987
scalar Network.dyn_peer[18] 	lookupStabilitySig:mean 	0.50892857142857
scalar Network.dyn_peer[18] 	lookupHopsSig:mean 	3.9285714285714
scalar Network.dyn_peer[19] 	lookupTimeSig:mean 	0.46930379746835
scalar Network.dyn_peer[19] 	lookupStabilitySig:mean 	0.47705696202532
scalar Network.dyn_peer[19] 	lookupHopsSig:mean 	4.1835443037975
scalar Network.dyn_peer[20] 	lookupTimeSig:mean 	0.48790035587189
scalar Network.dyn_peer[20] 	lookupStabilitySig:mean 	0.43994661921708
scalar Network.dyn_peer[20] 	lookupHopsSig:mean 	4.4804270462633
scalar Network.dyn_peer[21] 	lookupTimeSig:mean 	0.44647435897436
scalar Network.dyn_peer[21] 	lookupStabilitySig:mean 	0.50222578339088
scalar Network.dyn_peer[21] 	lookupHopsSig:mean 	3.9839743589744
scalar Network.dyn_peer[22] 	lookupTimeSig:mean 	0.47214285714286
scalar Network.dyn_peer[22] 	lookupStabilitySig:mean 	0.47008928571429
scalar Network.dyn_peer[22] 	lookupHopsSig:mean 	4.2392857142857
scalar Network.dyn_peer[23] 	lookupTimeSig:mean 	0.45259515570934
scalar Network.dyn_peer[23] 	lookupStabilitySig:mean 	0.50475778546713
scalar Network.dyn_peer[23] 	lookupHopsSig:mean 	3.961937716263
scalar Network.dyn_peer[24] 	lookupTimeSig:mean 	0.44790996784566
scalar Network.dyn_peer[24] 	lookupStabilitySig:mean 	0.5064308681672
scalar Network.dyn_peer[24] 	lookupHopsSig:mean 	3.9485530546624
scalar Network.dyn_peer[25] 	lookupTimeSig:mean 	0.46245614035088
scalar Network.dyn_peer[25] 	lookupStabilitySig:mean 	0.48513645223881
scalar Network.dyn_peer[25] 	lookupHopsSig:mean 	4.119298245614
scalar Network.dyn_peer[26] 	lookupTimeSig:mean 	0.4841726618705
scalar Network.dyn_peer[26] 	lookupStabilitySig:mean 	0.45008992805755
scalar Network.dyn_peer[26] 	lookupHopsSig:mean 	4.3992805755396
scalar Network.dyn_peer[27] 	lookupTimeSig:mean 	0.44871794871795
scalar Network.dyn_peer[27] 	lookupStabilitySig:mean 	0.49679487179487
scalar Network.dyn_peer[27] 	lookupHopsSig:mean 	4.025641025641
scalar Network.dyn_peer[28] 	lookupTimeSig:mean 	0.49776119402985
scalar Network.dyn_peer[28] 	lookupStabilitySig:mean 	0.43050373134328
scalar Network.dyn_peer[28] 	lookupHopsSig:mean 	4.5559701492537
scalar Network.dyn_peer[29] 	lookupTimeSig:mean 	0.49723183391003
scalar Network.dyn_peer[29] 	lookupStabilitySig:mean 	0.43944636678201
scalar Network.dyn_peer[29] 	lookupHopsSig:mean 	4.4844290657439
scalar Network.dyn_peer[30] 	lookupTimeSig:mean 	0.46952054794521
scalar Network.dyn_peer[30] 	lookupStabilitySig:mean 	0.47441019786343
scalar Network.dyn_peer[30] 	lookupHopsSig:mean 	4.2054794520548
scalar Network.dyn_peer[31] 	lookupTimeSig:mean 	0.45470383275261
scalar Network.dyn_peer[31] 	lookupStabilitySig:mean 	0.48954703832753
scalar Network.dyn_peer[31] 	lookupHopsSig:mean 	4.0836236933798
