version 2
run Stability-norelink-104-20130525-23:20:57-22103
attr configname Stability-norelink
attr datetime 20130525-23:20:57
attr experiment Stability
attr inifile omnetpp.ini
attr iterationvars $0=1e-4
attr iterationvars2 "$0=1e-4, $repetition=4"
attr measurement $0=1e-4
attr network Network
attr processid 22103
attr repetition 4
attr replication #4
attr resultdir results
attr runnumber 104
attr seedset 104

scalar Network.dyn_peer[0] 	lookupTimeSig:mean 	0.48829431438127
scalar Network.dyn_peer[0] 	lookupStabilitySig:mean 	0.44987922692578
scalar Network.dyn_peer[0] 	lookupHopsSig:mean 	4.4046822742475
scalar Network.dyn_peer[1] 	lookupTimeSig:mean 	0.48178571428571
scalar Network.dyn_peer[1] 	lookupStabilitySig:mean 	0.44866071428571
scalar Network.dyn_peer[1] 	lookupHopsSig:mean 	4.4107142857143
scalar Network.dyn_peer[2] 	lookupTimeSig:mean 	0.4812925170068
scalar Network.dyn_peer[2] 	lookupStabilitySig:mean 	0.46301020408163
scalar Network.dyn_peer[2] 	lookupHopsSig:mean 	4.2959183673469
scalar Network.dyn_peer[3] 	lookupTimeSig:mean 	0.45833333333333
scalar Network.dyn_peer[3] 	lookupStabilitySig:mean 	0.49101851850748
scalar Network.dyn_peer[3] 	lookupHopsSig:mean 	4.0733333333333
scalar Network.dyn_peer[4] 	lookupTimeSig:mean 	0.461
scalar Network.dyn_peer[4] 	lookupStabilitySig:mean 	0.48208333333333
scalar Network.dyn_peer[4] 	lookupHopsSig:mean 	4.1433333333333
scalar Network.dyn_peer[5] 	lookupTimeSig:mean 	0.46123778501629
scalar Network.dyn_peer[5] 	lookupStabilitySig:mean 	0.48991132821245
scalar Network.dyn_peer[5] 	lookupHopsSig:mean 	4.0846905537459
scalar Network.dyn_peer[6] 	lookupTimeSig:mean 	0.47731958762887
scalar Network.dyn_peer[6] 	lookupStabilitySig:mean 	0.46759259257837
scalar Network.dyn_peer[6] 	lookupHopsSig:mean 	4.2611683848797
scalar Network.dyn_peer[7] 	lookupTimeSig:mean 	0.44146341463415
scalar Network.dyn_peer[7] 	lookupStabilitySig:mean 	0.511941056903
scalar Network.dyn_peer[7] 	lookupHopsSig:mean 	3.905487804878
scalar Network.dyn_peer[8] 	lookupTimeSig:mean 	0.47770034843206
scalar Network.dyn_peer[8] 	lookupStabilitySig:mean 	0.46036585365854
scalar Network.dyn_peer[8] 	lookupHopsSig:mean 	4.3170731707317
scalar Network.dyn_peer[9] 	lookupTimeSig:mean 	0.444
scalar Network.dyn_peer[9] 	lookupStabilitySig:mean 	0.51101851840814
scalar Network.dyn_peer[9] 	lookupHopsSig:mean 	3.9166666666667
scalar Network.dyn_peer[10] 	lookupTimeSig:mean 	0.49889705882353
scalar Network.dyn_peer[10] 	lookupStabilitySig:mean 	0.43734681365245
scalar Network.dyn_peer[10] 	lookupHopsSig:mean 	4.5036764705882
scalar Network.dyn_peer[11] 	lookupTimeSig:mean 	0.48026755852843
scalar Network.dyn_peer[11] 	lookupStabilitySig:mean 	0.46060943882601
scalar Network.dyn_peer[11] 	lookupHopsSig:mean 	4.3177257525084
scalar Network.dyn_peer[12] 	lookupTimeSig:mean 	0.451
scalar Network.dyn_peer[12] 	lookupStabilitySig:mean 	0.49481481477618
scalar Network.dyn_peer[12] 	lookupHopsSig:mean 	4.0433333333333
scalar Network.dyn_peer[13] 	lookupTimeSig:mean 	0.49571428571429
scalar Network.dyn_peer[13] 	lookupStabilitySig:mean 	0.44057539674853
scalar Network.dyn_peer[13] 	lookupHopsSig:mean 	4.4785714285714
scalar Network.dyn_peer[14] 	lookupTimeSig:mean 	0.46789297658863
scalar Network.dyn_peer[14] 	lookupStabilitySig:mean 	0.47937569672547
scalar Network.dyn_peer[14] 	lookupHopsSig:mean 	4.1672240802676
scalar Network.dyn_peer[15] 	lookupTimeSig:mean 	0.4374613003096
scalar Network.dyn_peer[15] 	lookupStabilitySig:mean 	0.52291881664434
scalar Network.dyn_peer[15] 	lookupHopsSig:mean 	3.8173374613003
scalar Network.dyn_peer[16] 	lookupTimeSig:mean 	0.51859649122807
scalar Network.dyn_peer[16] 	lookupStabilitySig:mean 	0.41374269002362
scalar Network.dyn_peer[16] 	lookupHopsSig:mean 	4.6912280701754
scalar Network.dyn_peer[17] 	lookupTimeSig:mean 	0.46394557823129
scalar Network.dyn_peer[17] 	lookupStabilitySig:mean 	0.47751322751041
scalar Network.dyn_peer[17] 	lookupHopsSig:mean 	4.1802721088435
scalar Network.dyn_peer[18] 	lookupTimeSig:mean 	0.49930795847751
scalar Network.dyn_peer[18] 	lookupStabilitySig:mean 	0.43486159168519
scalar Network.dyn_peer[18] 	lookupHopsSig:mean 	4.522491349481
scalar Network.dyn_peer[19] 	lookupTimeSig:mean 	0.45880281690141
scalar Network.dyn_peer[19] 	lookupStabilitySig:mean 	0.48596439749317
scalar Network.dyn_peer[19] 	lookupHopsSig:mean 	4.1161971830986
scalar Network.dyn_peer[20] 	lookupTimeSig:mean 	0.51724137931034
scalar Network.dyn_peer[20] 	lookupStabilitySig:mean 	0.41203703699898
scalar Network.dyn_peer[20] 	lookupHopsSig:mean 	4.7049808429119
scalar Network.dyn_peer[21] 	lookupTimeSig:mean 	0.46345514950166
scalar Network.dyn_peer[21] 	lookupStabilitySig:mean 	0.47628276104547
scalar Network.dyn_peer[21] 	lookupHopsSig:mean 	4.1926910299003
scalar Network.dyn_peer[22] 	lookupTimeSig:mean 	0.47986348122867
scalar Network.dyn_peer[22] 	lookupStabilitySig:mean 	0.45236063695198
scalar Network.dyn_peer[22] 	lookupHopsSig:mean 	4.3856655290102
scalar Network.dyn_peer[23] 	lookupTimeSig:mean 	0.48592057761733
scalar Network.dyn_peer[23] 	lookupStabilitySig:mean 	0.44494584837545
scalar Network.dyn_peer[23] 	lookupHopsSig:mean 	4.4404332129964
scalar Network.dyn_peer[24] 	lookupTimeSig:mean 	0.48087248322148
scalar Network.dyn_peer[24] 	lookupStabilitySig:mean 	0.45721476505067
scalar Network.dyn_peer[24] 	lookupHopsSig:mean 	4.3456375838926
scalar Network.dyn_peer[25] 	lookupTimeSig:mean 	0.46539682539683
scalar Network.dyn_peer[25] 	lookupStabilitySig:mean 	0.4758818341153
scalar Network.dyn_peer[25] 	lookupHopsSig:mean 	4.1968253968254
scalar Network.dyn_peer[26] 	lookupTimeSig:mean 	0.48551236749117
scalar Network.dyn_peer[26] 	lookupStabilitySig:mean 	0.44954848837094
scalar Network.dyn_peer[26] 	lookupHopsSig:mean 	4.4063604240283
scalar Network.dyn_peer[27] 	lookupTimeSig:mean 	0.45367412140575
scalar Network.dyn_peer[27] 	lookupStabilitySig:mean 	0.49800319488818
scalar Network.dyn_peer[27] 	lookupHopsSig:mean 	4.0159744408946
scalar Network.dyn_peer[28] 	lookupTimeSig:mean 	0.41740412979351
scalar Network.dyn_peer[28] 	lookupStabilitySig:mean 	0.55051622416681
scalar Network.dyn_peer[28] 	lookupHopsSig:mean 	3.5988200589971
scalar Network.dyn_peer[29] 	lookupTimeSig:mean 	0.46993464052288
scalar Network.dyn_peer[29] 	lookupStabilitySig:mean 	0.4803013797679
scalar Network.dyn_peer[29] 	lookupHopsSig:mean 	4.1633986928105
scalar Network.dyn_peer[30] 	lookupTimeSig:mean 	0.49303135888502
scalar Network.dyn_peer[30] 	lookupStabilitySig:mean 	0.44100851713573
scalar Network.dyn_peer[30] 	lookupHopsSig:mean 	4.4738675958188
scalar Network.dyn_peer[31] 	lookupTimeSig:mean 	0.45442176870748
scalar Network.dyn_peer[31] 	lookupStabilitySig:mean 	0.48582766433151
scalar Network.dyn_peer[31] 	lookupHopsSig:mean 	4.1156462585034
