version 2
run Stability-norelink-96-20130525-23:20:24-22103
attr configname Stability-norelink
attr datetime 20130525-23:20:24
attr experiment Stability
attr inifile omnetpp.ini
attr iterationvars $0=1e-3
attr iterationvars2 "$0=1e-3, $repetition=6"
attr measurement $0=1e-3
attr network Network
attr processid 22103
attr repetition 6
attr replication #6
attr resultdir results
attr runnumber 96
attr seedset 96

scalar Network.dyn_peer[0] 	lookupTimeSig:mean 	0.49023569023569
scalar Network.dyn_peer[0] 	lookupStabilitySig:mean 	0.44290123453445
scalar Network.dyn_peer[0] 	lookupHopsSig:mean 	4.4579124579125
scalar Network.dyn_peer[1] 	lookupTimeSig:mean 	0.49161073825503
scalar Network.dyn_peer[1] 	lookupStabilitySig:mean 	0.44080909756606
scalar Network.dyn_peer[1] 	lookupHopsSig:mean 	4.4765100671141
scalar Network.dyn_peer[2] 	lookupTimeSig:mean 	0.51660516605166
scalar Network.dyn_peer[2] 	lookupStabilitySig:mean 	0.41656416558362
scalar Network.dyn_peer[2] 	lookupHopsSig:mean 	4.6715867158672
scalar Network.dyn_peer[3] 	lookupTimeSig:mean 	0.47551020408163
scalar Network.dyn_peer[3] 	lookupStabilitySig:mean 	0.46471088435374
scalar Network.dyn_peer[3] 	lookupHopsSig:mean 	4.2823129251701
scalar Network.dyn_peer[4] 	lookupTimeSig:mean 	0.48345323741007
scalar Network.dyn_peer[4] 	lookupStabilitySig:mean 	0.44834132693547
scalar Network.dyn_peer[4] 	lookupHopsSig:mean 	4.4136690647482
scalar Network.dyn_peer[5] 	lookupTimeSig:mean 	0.43251533742331
scalar Network.dyn_peer[5] 	lookupStabilitySig:mean 	0.52505112462249
scalar Network.dyn_peer[5] 	lookupHopsSig:mean 	3.8036809815951
scalar Network.dyn_peer[6] 	lookupTimeSig:mean 	0.44782608695652
scalar Network.dyn_peer[6] 	lookupStabilitySig:mean 	0.50112146303428
scalar Network.dyn_peer[6] 	lookupHopsSig:mean 	3.9968944099379
scalar Network.dyn_peer[7] 	lookupTimeSig:mean 	0.4702875399361
scalar Network.dyn_peer[7] 	lookupStabilitySig:mean 	0.47870074524381
scalar Network.dyn_peer[7] 	lookupHopsSig:mean 	4.1789137380192
scalar Network.dyn_peer[8] 	lookupTimeSig:mean 	0.49142857142857
scalar Network.dyn_peer[8] 	lookupStabilitySig:mean 	0.446875
scalar Network.dyn_peer[8] 	lookupHopsSig:mean 	4.425
scalar Network.dyn_peer[9] 	lookupTimeSig:mean 	0.48576271186441
scalar Network.dyn_peer[9] 	lookupStabilitySig:mean 	0.45979284361257
scalar Network.dyn_peer[9] 	lookupHopsSig:mean 	4.328813559322
scalar Network.dyn_peer[10] 	lookupTimeSig:mean 	0.49452054794521
scalar Network.dyn_peer[10] 	lookupStabilitySig:mean 	0.44477739715821
scalar Network.dyn_peer[10] 	lookupHopsSig:mean 	4.4452054794521
scalar Network.dyn_peer[11] 	lookupTimeSig:mean 	0.48954703832753
scalar Network.dyn_peer[11] 	lookupStabilitySig:mean 	0.44710607811134
scalar Network.dyn_peer[11] 	lookupHopsSig:mean 	4.4250871080139
scalar Network.dyn_peer[12] 	lookupTimeSig:mean 	0.46860068259386
scalar Network.dyn_peer[12] 	lookupStabilitySig:mean 	0.47928517253326
scalar Network.dyn_peer[12] 	lookupHopsSig:mean 	4.1672354948805
scalar Network.dyn_peer[13] 	lookupTimeSig:mean 	0.48561872909699
scalar Network.dyn_peer[13] 	lookupStabilitySig:mean 	0.45317725752508
scalar Network.dyn_peer[13] 	lookupHopsSig:mean 	4.3745819397993
scalar Network.dyn_peer[14] 	lookupTimeSig:mean 	0.46697530864198
scalar Network.dyn_peer[14] 	lookupStabilitySig:mean 	0.48293895743511
scalar Network.dyn_peer[14] 	lookupHopsSig:mean 	4.1388888888889
scalar Network.dyn_peer[15] 	lookupTimeSig:mean 	0.44900662251656
scalar Network.dyn_peer[15] 	lookupStabilitySig:mean 	0.49999999995066
scalar Network.dyn_peer[15] 	lookupHopsSig:mean 	4.0033112582781
scalar Network.dyn_peer[16] 	lookupTimeSig:mean 	0.47041800643087
scalar Network.dyn_peer[16] 	lookupStabilitySig:mean 	0.47575026793687
scalar Network.dyn_peer[16] 	lookupHopsSig:mean 	4.1961414790997
scalar Network.dyn_peer[17] 	lookupTimeSig:mean 	0.48239436619718
scalar Network.dyn_peer[17] 	lookupStabilitySig:mean 	0.46082746478873
scalar Network.dyn_peer[17] 	lookupHopsSig:mean 	4.3133802816901
scalar Network.dyn_peer[18] 	lookupTimeSig:mean 	0.45545171339564
scalar Network.dyn_peer[18] 	lookupStabilitySig:mean 	0.49580304603153
scalar Network.dyn_peer[18] 	lookupHopsSig:mean 	4.0342679127726
scalar Network.dyn_peer[19] 	lookupTimeSig:mean 	0.48899676375405
scalar Network.dyn_peer[19] 	lookupStabilitySig:mean 	0.45617583596591
scalar Network.dyn_peer[19] 	lookupHopsSig:mean 	4.3527508090615
scalar Network.dyn_peer[20] 	lookupTimeSig:mean 	0.48793103448276
scalar Network.dyn_peer[20] 	lookupStabilitySig:mean 	0.45043103448276
scalar Network.dyn_peer[20] 	lookupHopsSig:mean 	4.3965517241379
scalar Network.dyn_peer[21] 	lookupTimeSig:mean 	0.48599348534202
scalar Network.dyn_peer[21] 	lookupStabilitySig:mean 	0.44367535290967
scalar Network.dyn_peer[21] 	lookupHopsSig:mean 	4.4592833876221
scalar Network.dyn_peer[22] 	lookupTimeSig:mean 	0.4938566552901
scalar Network.dyn_peer[22] 	lookupStabilitySig:mean 	0.43278346604861
scalar Network.dyn_peer[22] 	lookupHopsSig:mean 	4.5392491467577
scalar Network.dyn_peer[23] 	lookupTimeSig:mean 	0.43594202898551
scalar Network.dyn_peer[23] 	lookupStabilitySig:mean 	0.52270531399526
scalar Network.dyn_peer[23] 	lookupHopsSig:mean 	3.8202898550725
scalar Network.dyn_peer[24] 	lookupTimeSig:mean 	0.46978851963746
scalar Network.dyn_peer[24] 	lookupStabilitySig:mean 	0.46957871750042
scalar Network.dyn_peer[24] 	lookupHopsSig:mean 	4.2477341389728
scalar Network.dyn_peer[25] 	lookupTimeSig:mean 	0.45114006514658
scalar Network.dyn_peer[25] 	lookupStabilitySig:mean 	0.49493304365815
scalar Network.dyn_peer[25] 	lookupHopsSig:mean 	4.0456026058632
scalar Network.dyn_peer[26] 	lookupTimeSig:mean 	0.44845679012346
scalar Network.dyn_peer[26] 	lookupStabilitySig:mean 	0.51221707794401
scalar Network.dyn_peer[26] 	lookupHopsSig:mean 	3.9104938271605
scalar Network.dyn_peer[27] 	lookupTimeSig:mean 	0.47669902912621
scalar Network.dyn_peer[27] 	lookupStabilitySig:mean 	0.4706040991645
scalar Network.dyn_peer[27] 	lookupHopsSig:mean 	4.2394822006472
scalar Network.dyn_peer[28] 	lookupTimeSig:mean 	0.492
scalar Network.dyn_peer[28] 	lookupStabilitySig:mean 	0.44732323229313
scalar Network.dyn_peer[28] 	lookupHopsSig:mean 	4.4254545454545
scalar Network.dyn_peer[29] 	lookupTimeSig:mean 	0.47559322033898
scalar Network.dyn_peer[29] 	lookupStabilitySig:mean 	0.47697740106259
scalar Network.dyn_peer[29] 	lookupHopsSig:mean 	4.1864406779661
scalar Network.dyn_peer[30] 	lookupTimeSig:mean 	0.50549828178694
scalar Network.dyn_peer[30] 	lookupStabilitySig:mean 	0.42353951879793
scalar Network.dyn_peer[30] 	lookupHopsSig:mean 	4.6185567010309
scalar Network.dyn_peer[31] 	lookupTimeSig:mean 	0.4703071672355
scalar Network.dyn_peer[31] 	lookupStabilitySig:mean 	0.46899886230967
scalar Network.dyn_peer[31] 	lookupHopsSig:mean 	4.2491467576792
