version 2
run Stability-norelink-108-20130525-23:21:13-22103
attr configname Stability-norelink
attr datetime 20130525-23:21:13
attr experiment Stability
attr inifile omnetpp.ini
attr iterationvars $0=1e-4
attr iterationvars2 "$0=1e-4, $repetition=8"
attr measurement $0=1e-4
attr network Network
attr processid 22103
attr repetition 8
attr replication #8
attr resultdir results
attr runnumber 108
attr seedset 108

scalar Network.dyn_peer[0] 	lookupTimeSig:mean 	0.44
scalar Network.dyn_peer[0] 	lookupStabilitySig:mean 	0.5133424407146
scalar Network.dyn_peer[0] 	lookupHopsSig:mean 	3.8950819672131
scalar Network.dyn_peer[1] 	lookupTimeSig:mean 	0.4588424437299
scalar Network.dyn_peer[1] 	lookupStabilitySig:mean 	0.49035369767733
scalar Network.dyn_peer[1] 	lookupHopsSig:mean 	4.0836012861736
scalar Network.dyn_peer[2] 	lookupTimeSig:mean 	0.46938110749186
scalar Network.dyn_peer[2] 	lookupStabilitySig:mean 	0.47394136807818
scalar Network.dyn_peer[2] 	lookupHopsSig:mean 	4.2084690553746
scalar Network.dyn_peer[3] 	lookupTimeSig:mean 	0.46237623762376
scalar Network.dyn_peer[3] 	lookupStabilitySig:mean 	0.47928126136659
scalar Network.dyn_peer[3] 	lookupHopsSig:mean 	4.1749174917492
scalar Network.dyn_peer[4] 	lookupTimeSig:mean 	0.49530685920578
scalar Network.dyn_peer[4] 	lookupStabilitySig:mean 	0.44419374238928
scalar Network.dyn_peer[4] 	lookupHopsSig:mean 	4.4512635379061
scalar Network.dyn_peer[5] 	lookupTimeSig:mean 	0.47612456747405
scalar Network.dyn_peer[5] 	lookupStabilitySig:mean 	0.47063629354985
scalar Network.dyn_peer[5] 	lookupHopsSig:mean 	4.2387543252595
scalar Network.dyn_peer[6] 	lookupTimeSig:mean 	0.4583596214511
scalar Network.dyn_peer[6] 	lookupStabilitySig:mean 	0.48987907462692
scalar Network.dyn_peer[6] 	lookupHopsSig:mean 	4.0820189274448
scalar Network.dyn_peer[7] 	lookupTimeSig:mean 	0.48842443729904
scalar Network.dyn_peer[7] 	lookupStabilitySig:mean 	0.45007145404816
scalar Network.dyn_peer[7] 	lookupHopsSig:mean 	4.4019292604502
scalar Network.dyn_peer[8] 	lookupTimeSig:mean 	0.45814696485623
scalar Network.dyn_peer[8] 	lookupStabilitySig:mean 	0.49068157608136
scalar Network.dyn_peer[8] 	lookupHopsSig:mean 	4.0766773162939
scalar Network.dyn_peer[9] 	lookupTimeSig:mean 	0.44255319148936
scalar Network.dyn_peer[9] 	lookupStabilitySig:mean 	0.50954069564045
scalar Network.dyn_peer[9] 	lookupHopsSig:mean 	3.9270516717325
scalar Network.dyn_peer[10] 	lookupTimeSig:mean 	0.45290322580645
scalar Network.dyn_peer[10] 	lookupStabilitySig:mean 	0.49316308238814
scalar Network.dyn_peer[10] 	lookupHopsSig:mean 	4.0612903225806
scalar Network.dyn_peer[11] 	lookupTimeSig:mean 	0.48571428571429
scalar Network.dyn_peer[11] 	lookupStabilitySig:mean 	0.45314754685992
scalar Network.dyn_peer[11] 	lookupHopsSig:mean 	4.3766233766234
scalar Network.dyn_peer[12] 	lookupTimeSig:mean 	0.46402640264026
scalar Network.dyn_peer[12] 	lookupStabilitySig:mean 	0.48349834983498
scalar Network.dyn_peer[12] 	lookupHopsSig:mean 	4.1320132013201
scalar Network.dyn_peer[13] 	lookupTimeSig:mean 	0.46079136690648
scalar Network.dyn_peer[13] 	lookupStabilitySig:mean 	0.48021582733813
scalar Network.dyn_peer[13] 	lookupHopsSig:mean 	4.158273381295
scalar Network.dyn_peer[14] 	lookupTimeSig:mean 	0.49097472924188
scalar Network.dyn_peer[14] 	lookupStabilitySig:mean 	0.43927998391622
scalar Network.dyn_peer[14] 	lookupHopsSig:mean 	4.4873646209386
scalar Network.dyn_peer[15] 	lookupTimeSig:mean 	0.49651567944251
scalar Network.dyn_peer[15] 	lookupStabilitySig:mean 	0.44502516443929
scalar Network.dyn_peer[15] 	lookupHopsSig:mean 	4.4425087108014
scalar Network.dyn_peer[16] 	lookupTimeSig:mean 	0.49042553191489
scalar Network.dyn_peer[16] 	lookupStabilitySig:mean 	0.45404846332175
scalar Network.dyn_peer[16] 	lookupHopsSig:mean 	4.3687943262411
scalar Network.dyn_peer[17] 	lookupTimeSig:mean 	0.46470588235294
scalar Network.dyn_peer[17] 	lookupStabilitySig:mean 	0.47592272199561
scalar Network.dyn_peer[17] 	lookupHopsSig:mean 	4.1937716262976
scalar Network.dyn_peer[18] 	lookupTimeSig:mean 	0.49026217228464
scalar Network.dyn_peer[18] 	lookupStabilitySig:mean 	0.44850187265918
scalar Network.dyn_peer[18] 	lookupHopsSig:mean 	4.4119850187266
scalar Network.dyn_peer[19] 	lookupTimeSig:mean 	0.50430107526882
scalar Network.dyn_peer[19] 	lookupStabilitySig:mean 	0.420997610309
scalar Network.dyn_peer[19] 	lookupHopsSig:mean 	4.6379928315412
scalar Network.dyn_peer[20] 	lookupTimeSig:mean 	0.47281879194631
scalar Network.dyn_peer[20] 	lookupStabilitySig:mean 	0.47501864279277
scalar Network.dyn_peer[20] 	lookupHopsSig:mean 	4.2013422818792
scalar Network.dyn_peer[21] 	lookupTimeSig:mean 	0.4546357615894
scalar Network.dyn_peer[21] 	lookupStabilitySig:mean 	0.49576894771184
scalar Network.dyn_peer[21] 	lookupHopsSig:mean 	4.0364238410596
scalar Network.dyn_peer[22] 	lookupTimeSig:mean 	0.48316498316498
scalar Network.dyn_peer[22] 	lookupStabilitySig:mean 	0.45664983164983
scalar Network.dyn_peer[22] 	lookupHopsSig:mean 	4.3468013468013
scalar Network.dyn_peer[23] 	lookupTimeSig:mean 	0.47163120567376
scalar Network.dyn_peer[23] 	lookupStabilitySig:mean 	0.47089243495295
scalar Network.dyn_peer[23] 	lookupHopsSig:mean 	4.2340425531915
scalar Network.dyn_peer[24] 	lookupTimeSig:mean 	0.461875
scalar Network.dyn_peer[24] 	lookupStabilitySig:mean 	0.4796875
scalar Network.dyn_peer[24] 	lookupHopsSig:mean 	4.1625
scalar Network.dyn_peer[25] 	lookupTimeSig:mean 	0.44506578947368
scalar Network.dyn_peer[25] 	lookupStabilitySig:mean 	0.49835526315789
scalar Network.dyn_peer[25] 	lookupHopsSig:mean 	4.0131578947368
scalar Network.dyn_peer[26] 	lookupTimeSig:mean 	0.45723905723906
scalar Network.dyn_peer[26] 	lookupStabilitySig:mean 	0.49579124579125
scalar Network.dyn_peer[26] 	lookupHopsSig:mean 	4.03367003367
scalar Network.dyn_peer[27] 	lookupTimeSig:mean 	0.50960854092527
scalar Network.dyn_peer[27] 	lookupStabilitySig:mean 	0.42492091740578
scalar Network.dyn_peer[27] 	lookupHopsSig:mean 	4.6049822064057
scalar Network.dyn_peer[28] 	lookupTimeSig:mean 	0.46709677419355
scalar Network.dyn_peer[28] 	lookupStabilitySig:mean 	0.47616487448254
scalar Network.dyn_peer[28] 	lookupHopsSig:mean 	4.1935483870968
scalar Network.dyn_peer[29] 	lookupTimeSig:mean 	0.48571428571429
scalar Network.dyn_peer[29] 	lookupStabilitySig:mean 	0.45523615949868
scalar Network.dyn_peer[29] 	lookupHopsSig:mean 	4.3588850174216
scalar Network.dyn_peer[30] 	lookupTimeSig:mean 	0.46790540540541
scalar Network.dyn_peer[30] 	lookupStabilitySig:mean 	0.48259196664534
scalar Network.dyn_peer[30] 	lookupHopsSig:mean 	4.152027027027
scalar Network.dyn_peer[31] 	lookupTimeSig:mean 	0.45798045602606
scalar Network.dyn_peer[31] 	lookupStabilitySig:mean 	0.49140427069866
scalar Network.dyn_peer[31] 	lookupHopsSig:mean 	4.071661237785
