version 2
run Stability-38-20130524-20:22:10-3483
attr configname Stability
attr datetime 20130524-20:22:10
attr experiment Stability
attr inifile omnetpp.ini
attr iterationvars $0=1e3
attr iterationvars2 "$0=1e3, $repetition=8"
attr measurement $0=1e3
attr network Network
attr processid 3483
attr repetition 8
attr replication #8
attr resultdir results
attr runnumber 38
attr seedset 38

scalar Network.dyn_peer[0] 	lookupTimeSig:mean 	0.32584269662921
scalar Network.dyn_peer[0] 	lookupStabilitySig:mean 	0.89093363269717
scalar Network.dyn_peer[0] 	lookupHopsSig:mean 	2.3782771535581
scalar Network.dyn_peer[1] 	lookupTimeSig:mean 	0.31394422310757
scalar Network.dyn_peer[1] 	lookupStabilitySig:mean 	0.90357996906299
scalar Network.dyn_peer[1] 	lookupHopsSig:mean 	2.2709163346614
scalar Network.dyn_peer[2] 	lookupTimeSig:mean 	0.32488888888889
scalar Network.dyn_peer[2] 	lookupStabilitySig:mean 	0.889883503293
scalar Network.dyn_peer[2] 	lookupHopsSig:mean 	2.3955555555556
scalar Network.dyn_peer[3] 	lookupTimeSig:mean 	0.317004048583
scalar Network.dyn_peer[3] 	lookupStabilitySig:mean 	0.89589768305783
scalar Network.dyn_peer[3] 	lookupHopsSig:mean 	2.2995951417004
scalar Network.dyn_peer[4] 	lookupTimeSig:mean 	0.31636363636364
scalar Network.dyn_peer[4] 	lookupStabilitySig:mean 	0.89070681085641
scalar Network.dyn_peer[4] 	lookupHopsSig:mean 	2.2836363636364
scalar Network.dyn_peer[5] 	lookupTimeSig:mean 	0.325
scalar Network.dyn_peer[5] 	lookupStabilitySig:mean 	0.89891184590978
scalar Network.dyn_peer[5] 	lookupHopsSig:mean 	2.385593220339
scalar Network.dyn_peer[6] 	lookupTimeSig:mean 	0.32186379928315
scalar Network.dyn_peer[6] 	lookupStabilitySig:mean 	0.8932107358263
scalar Network.dyn_peer[6] 	lookupHopsSig:mean 	2.336917562724
scalar Network.dyn_peer[7] 	lookupTimeSig:mean 	0.32648221343874
scalar Network.dyn_peer[7] 	lookupStabilitySig:mean 	0.89016111654491
scalar Network.dyn_peer[7] 	lookupHopsSig:mean 	2.3913043478261
scalar Network.dyn_peer[8] 	lookupTimeSig:mean 	0.2992
scalar Network.dyn_peer[8] 	lookupStabilitySig:mean 	0.89592490780354
scalar Network.dyn_peer[8] 	lookupHopsSig:mean 	2.12
scalar Network.dyn_peer[9] 	lookupTimeSig:mean 	0.32661596958175
scalar Network.dyn_peer[9] 	lookupStabilitySig:mean 	0.90283541496092
scalar Network.dyn_peer[9] 	lookupHopsSig:mean 	2.3878326996198
scalar Network.dyn_peer[10] 	lookupTimeSig:mean 	0.29952830188679
scalar Network.dyn_peer[10] 	lookupStabilitySig:mean 	0.89548816638208
scalar Network.dyn_peer[10] 	lookupHopsSig:mean 	2.1462264150943
scalar Network.dyn_peer[11] 	lookupTimeSig:mean 	0.33834951456311
scalar Network.dyn_peer[11] 	lookupStabilitySig:mean 	0.89061347562458
scalar Network.dyn_peer[11] 	lookupHopsSig:mean 	2.5388349514563
scalar Network.dyn_peer[12] 	lookupTimeSig:mean 	0.29038461538462
scalar Network.dyn_peer[12] 	lookupStabilitySig:mean 	0.89507010731345
scalar Network.dyn_peer[12] 	lookupHopsSig:mean 	2.0625
scalar Network.dyn_peer[13] 	lookupTimeSig:mean 	0.32846715328467
scalar Network.dyn_peer[13] 	lookupStabilitySig:mean 	0.89509581977733
scalar Network.dyn_peer[13] 	lookupHopsSig:mean 	2.4014598540146
scalar Network.dyn_peer[14] 	lookupTimeSig:mean 	0.30779220779221
scalar Network.dyn_peer[14] 	lookupStabilitySig:mean 	0.89033406882575
scalar Network.dyn_peer[14] 	lookupHopsSig:mean 	2.2164502164502
scalar Network.dyn_peer[15] 	lookupTimeSig:mean 	0.30087336244541
scalar Network.dyn_peer[15] 	lookupStabilitySig:mean 	0.88819898812173
scalar Network.dyn_peer[15] 	lookupHopsSig:mean 	2.1528384279476
scalar Network.dyn_peer[16] 	lookupTimeSig:mean 	0.31333333333333
scalar Network.dyn_peer[16] 	lookupStabilitySig:mean 	0.89537832339605
scalar Network.dyn_peer[16] 	lookupHopsSig:mean 	2.2755555555556
scalar Network.dyn_peer[17] 	lookupTimeSig:mean 	0.33571428571429
scalar Network.dyn_peer[17] 	lookupStabilitySig:mean 	0.89522061293246
scalar Network.dyn_peer[17] 	lookupHopsSig:mean 	2.5
scalar Network.dyn_peer[18] 	lookupTimeSig:mean 	0.30944881889764
scalar Network.dyn_peer[18] 	lookupStabilitySig:mean 	0.89087319698947
scalar Network.dyn_peer[18] 	lookupHopsSig:mean 	2.2204724409449
scalar Network.dyn_peer[19] 	lookupTimeSig:mean 	0.30950570342205
scalar Network.dyn_peer[19] 	lookupStabilitySig:mean 	0.89679736901825
scalar Network.dyn_peer[19] 	lookupHopsSig:mean 	2.2167300380228
scalar Network.dyn_peer[20] 	lookupTimeSig:mean 	0.32089552238806
scalar Network.dyn_peer[20] 	lookupStabilitySig:mean 	0.88703944078132
scalar Network.dyn_peer[20] 	lookupHopsSig:mean 	2.3320895522388
scalar Network.dyn_peer[21] 	lookupTimeSig:mean 	0.29481132075472
scalar Network.dyn_peer[21] 	lookupStabilitySig:mean 	0.89833435929328
scalar Network.dyn_peer[21] 	lookupHopsSig:mean 	2.0990566037736
scalar Network.dyn_peer[22] 	lookupTimeSig:mean 	0.325
scalar Network.dyn_peer[22] 	lookupStabilitySig:mean 	0.89490285270326
scalar Network.dyn_peer[22] 	lookupHopsSig:mean 	2.385593220339
scalar Network.dyn_peer[23] 	lookupTimeSig:mean 	0.32470119521912
scalar Network.dyn_peer[23] 	lookupStabilitySig:mean 	0.89730129728606
scalar Network.dyn_peer[23] 	lookupHopsSig:mean 	2.3745019920319
scalar Network.dyn_peer[24] 	lookupTimeSig:mean 	0.32843601895735
scalar Network.dyn_peer[24] 	lookupStabilitySig:mean 	0.8967505436373
scalar Network.dyn_peer[24] 	lookupHopsSig:mean 	2.436018957346
scalar Network.dyn_peer[25] 	lookupTimeSig:mean 	0.30411522633745
scalar Network.dyn_peer[25] 	lookupStabilitySig:mean 	0.90375952949219
scalar Network.dyn_peer[25] 	lookupHopsSig:mean 	2.1728395061728
scalar Network.dyn_peer[26] 	lookupTimeSig:mean 	0.31910569105691
scalar Network.dyn_peer[26] 	lookupStabilitySig:mean 	0.88560354626336
scalar Network.dyn_peer[26] 	lookupHopsSig:mean 	2.3252032520325
scalar Network.dyn_peer[27] 	lookupTimeSig:mean 	0.2995983935743
scalar Network.dyn_peer[27] 	lookupStabilitySig:mean 	0.8926718072689
scalar Network.dyn_peer[27] 	lookupHopsSig:mean 	2.1244979919679
scalar Network.dyn_peer[28] 	lookupTimeSig:mean 	0.34889705882353
scalar Network.dyn_peer[28] 	lookupStabilitySig:mean 	0.89231929072754
scalar Network.dyn_peer[28] 	lookupHopsSig:mean 	2.6066176470588
scalar Network.dyn_peer[29] 	lookupTimeSig:mean 	0.32247191011236
scalar Network.dyn_peer[29] 	lookupStabilitySig:mean 	0.90283308787209
scalar Network.dyn_peer[29] 	lookupHopsSig:mean 	2.3445692883895
scalar Network.dyn_peer[30] 	lookupTimeSig:mean 	0.32707423580786
scalar Network.dyn_peer[30] 	lookupStabilitySig:mean 	0.90329900610883
scalar Network.dyn_peer[30] 	lookupHopsSig:mean 	2.410480349345
scalar Network.dyn_peer[31] 	lookupTimeSig:mean 	0.32788104089219
scalar Network.dyn_peer[31] 	lookupStabilitySig:mean 	0.89159072189831
scalar Network.dyn_peer[31] 	lookupHopsSig:mean 	2.4014869888476
