version 2
run Stability-31-20130524-20:21:52-3483
attr configname Stability
attr datetime 20130524-20:21:52
attr experiment Stability
attr inifile omnetpp.ini
attr iterationvars $0=1e3
attr iterationvars2 "$0=1e3, $repetition=1"
attr measurement $0=1e3
attr network Network
attr processid 3483
attr repetition 1
attr replication #1
attr resultdir results
attr runnumber 31
attr seedset 31

scalar Network.dyn_peer[0] 	lookupTimeSig:mean 	0.32794117647059
scalar Network.dyn_peer[0] 	lookupStabilitySig:mean 	0.88510942507042
scalar Network.dyn_peer[0] 	lookupHopsSig:mean 	2.4007352941176
scalar Network.dyn_peer[1] 	lookupTimeSig:mean 	0.32482269503546
scalar Network.dyn_peer[1] 	lookupStabilitySig:mean 	0.89270541145209
scalar Network.dyn_peer[1] 	lookupHopsSig:mean 	2.3617021276596
scalar Network.dyn_peer[2] 	lookupTimeSig:mean 	0.2970802919708
scalar Network.dyn_peer[2] 	lookupStabilitySig:mean 	0.8979378961992
scalar Network.dyn_peer[2] 	lookupHopsSig:mean 	2.0875912408759
scalar Network.dyn_peer[3] 	lookupTimeSig:mean 	0.30301724137931
scalar Network.dyn_peer[3] 	lookupStabilitySig:mean 	0.89288617533246
scalar Network.dyn_peer[3] 	lookupHopsSig:mean 	2.1724137931034
scalar Network.dyn_peer[4] 	lookupTimeSig:mean 	0.31590909090909
scalar Network.dyn_peer[4] 	lookupStabilitySig:mean 	0.8975442063656
scalar Network.dyn_peer[4] 	lookupHopsSig:mean 	2.3045454545455
scalar Network.dyn_peer[5] 	lookupTimeSig:mean 	0.30983606557377
scalar Network.dyn_peer[5] 	lookupStabilitySig:mean 	0.88287456074852
scalar Network.dyn_peer[5] 	lookupHopsSig:mean 	2.233606557377
scalar Network.dyn_peer[6] 	lookupTimeSig:mean 	0.3088122605364
scalar Network.dyn_peer[6] 	lookupStabilitySig:mean 	0.89340391565985
scalar Network.dyn_peer[6] 	lookupHopsSig:mean 	2.2107279693487
scalar Network.dyn_peer[7] 	lookupTimeSig:mean 	0.31020408163265
scalar Network.dyn_peer[7] 	lookupStabilitySig:mean 	0.90333569746997
scalar Network.dyn_peer[7] 	lookupHopsSig:mean 	2.2326530612245
scalar Network.dyn_peer[8] 	lookupTimeSig:mean 	0.31416309012876
scalar Network.dyn_peer[8] 	lookupStabilitySig:mean 	0.89211379183464
scalar Network.dyn_peer[8] 	lookupHopsSig:mean 	2.2832618025751
scalar Network.dyn_peer[9] 	lookupTimeSig:mean 	0.30539419087137
scalar Network.dyn_peer[9] 	lookupStabilitySig:mean 	0.89587252179771
scalar Network.dyn_peer[9] 	lookupHopsSig:mean 	2.1867219917012
scalar Network.dyn_peer[10] 	lookupTimeSig:mean 	0.32231404958678
scalar Network.dyn_peer[10] 	lookupStabilitySig:mean 	0.89682244683408
scalar Network.dyn_peer[10] 	lookupHopsSig:mean 	2.3553719008264
scalar Network.dyn_peer[11] 	lookupTimeSig:mean 	0.33798449612403
scalar Network.dyn_peer[11] 	lookupStabilitySig:mean 	0.89501809394492
scalar Network.dyn_peer[11] 	lookupHopsSig:mean 	2.5038759689922
scalar Network.dyn_peer[12] 	lookupTimeSig:mean 	0.30978260869565
scalar Network.dyn_peer[12] 	lookupStabilitySig:mean 	0.88286301819608
scalar Network.dyn_peer[12] 	lookupHopsSig:mean 	2.2246376811594
scalar Network.dyn_peer[13] 	lookupTimeSig:mean 	0.3275
scalar Network.dyn_peer[13] 	lookupStabilitySig:mean 	0.89870831748205
scalar Network.dyn_peer[13] 	lookupHopsSig:mean 	2.3892857142857
scalar Network.dyn_peer[14] 	lookupTimeSig:mean 	0.31028806584362
scalar Network.dyn_peer[14] 	lookupStabilitySig:mean 	0.89908744864656
scalar Network.dyn_peer[14] 	lookupHopsSig:mean 	2.2345679012346
scalar Network.dyn_peer[15] 	lookupTimeSig:mean 	0.32115384615385
scalar Network.dyn_peer[15] 	lookupStabilitySig:mean 	0.89582350712198
scalar Network.dyn_peer[15] 	lookupHopsSig:mean 	2.3653846153846
scalar Network.dyn_peer[16] 	lookupTimeSig:mean 	0.29871794871795
scalar Network.dyn_peer[16] 	lookupStabilitySig:mean 	0.90182728901442
scalar Network.dyn_peer[16] 	lookupHopsSig:mean 	2.1239316239316
scalar Network.dyn_peer[17] 	lookupTimeSig:mean 	0.29815668202765
scalar Network.dyn_peer[17] 	lookupStabilitySig:mean 	0.89775687511924
scalar Network.dyn_peer[17] 	lookupHopsSig:mean 	2.1290322580645
scalar Network.dyn_peer[18] 	lookupTimeSig:mean 	0.31072961373391
scalar Network.dyn_peer[18] 	lookupStabilitySig:mean 	0.90149205543357
scalar Network.dyn_peer[18] 	lookupHopsSig:mean 	2.244635193133
scalar Network.dyn_peer[19] 	lookupTimeSig:mean 	0.31653543307087
scalar Network.dyn_peer[19] 	lookupStabilitySig:mean 	0.88213724695791
scalar Network.dyn_peer[19] 	lookupHopsSig:mean 	2.2992125984252
scalar Network.dyn_peer[20] 	lookupTimeSig:mean 	0.33138686131387
scalar Network.dyn_peer[20] 	lookupStabilitySig:mean 	0.89120227363586
scalar Network.dyn_peer[20] 	lookupHopsSig:mean 	2.4306569343066
scalar Network.dyn_peer[21] 	lookupTimeSig:mean 	0.3281124497992
scalar Network.dyn_peer[21] 	lookupStabilitySig:mean 	0.89911635033038
scalar Network.dyn_peer[21] 	lookupHopsSig:mean 	2.4096385542169
scalar Network.dyn_peer[22] 	lookupTimeSig:mean 	0.31923076923077
scalar Network.dyn_peer[22] 	lookupStabilitySig:mean 	0.89766403413418
scalar Network.dyn_peer[22] 	lookupHopsSig:mean 	2.3290598290598
scalar Network.dyn_peer[23] 	lookupTimeSig:mean 	0.3219730941704
scalar Network.dyn_peer[23] 	lookupStabilitySig:mean 	0.89812738959565
scalar Network.dyn_peer[23] 	lookupHopsSig:mean 	2.3632286995516
scalar Network.dyn_peer[24] 	lookupTimeSig:mean 	0.31935483870968
scalar Network.dyn_peer[24] 	lookupStabilitySig:mean 	0.90346197477512
scalar Network.dyn_peer[24] 	lookupHopsSig:mean 	2.3225806451613
scalar Network.dyn_peer[25] 	lookupTimeSig:mean 	0.31389961389961
scalar Network.dyn_peer[25] 	lookupStabilitySig:mean 	0.89523175831985
scalar Network.dyn_peer[25] 	lookupHopsSig:mean 	2.2664092664093
scalar Network.dyn_peer[26] 	lookupTimeSig:mean 	0.32170818505338
scalar Network.dyn_peer[26] 	lookupStabilitySig:mean 	0.90928112563024
scalar Network.dyn_peer[26] 	lookupHopsSig:mean 	2.3309608540925
scalar Network.dyn_peer[27] 	lookupTimeSig:mean 	0.33026315789474
scalar Network.dyn_peer[27] 	lookupStabilitySig:mean 	0.88668803018599
scalar Network.dyn_peer[27] 	lookupHopsSig:mean 	2.4473684210526
scalar Network.dyn_peer[28] 	lookupTimeSig:mean 	0.31936758893281
scalar Network.dyn_peer[28] 	lookupStabilitySig:mean 	0.89990049758153
scalar Network.dyn_peer[28] 	lookupHopsSig:mean 	2.3201581027668
scalar Network.dyn_peer[29] 	lookupTimeSig:mean 	0.3068669527897
scalar Network.dyn_peer[29] 	lookupStabilitySig:mean 	0.90117659159964
scalar Network.dyn_peer[29] 	lookupHopsSig:mean 	2.2017167381974
scalar Network.dyn_peer[30] 	lookupTimeSig:mean 	0.32403433476395
scalar Network.dyn_peer[30] 	lookupStabilitySig:mean 	0.89921262236752
scalar Network.dyn_peer[30] 	lookupHopsSig:mean 	2.3776824034335
scalar Network.dyn_peer[31] 	lookupTimeSig:mean 	0.31776061776062
scalar Network.dyn_peer[31] 	lookupStabilitySig:mean 	0.91043594245831
scalar Network.dyn_peer[31] 	lookupHopsSig:mean 	2.2972972972973
