version 2
run Stability-87-20130524-20:23:41-3483
attr configname Stability
attr datetime 20130524-20:23:41
attr experiment Stability
attr inifile omnetpp.ini
attr iterationvars $0=1e-2
attr iterationvars2 "$0=1e-2, $repetition=7"
attr measurement $0=1e-2
attr network Network
attr processid 3483
attr repetition 7
attr replication #7
attr resultdir results
attr runnumber 87
attr seedset 87

scalar Network.dyn_peer[0] 	lookupTimeSig:mean 	0.37972027972028
scalar Network.dyn_peer[0] 	lookupStabilitySig:mean 	0.76287816315108
scalar Network.dyn_peer[0] 	lookupHopsSig:mean 	3.0909090909091
scalar Network.dyn_peer[1] 	lookupTimeSig:mean 	0.40068027210884
scalar Network.dyn_peer[1] 	lookupStabilitySig:mean 	0.77243603945893
scalar Network.dyn_peer[1] 	lookupHopsSig:mean 	3.2585034013605
scalar Network.dyn_peer[2] 	lookupTimeSig:mean 	0.35461538461538
scalar Network.dyn_peer[2] 	lookupStabilitySig:mean 	0.76915279486432
scalar Network.dyn_peer[2] 	lookupHopsSig:mean 	2.8461538461538
scalar Network.dyn_peer[3] 	lookupTimeSig:mean 	0.4013698630137
scalar Network.dyn_peer[3] 	lookupStabilitySig:mean 	0.76054387723338
scalar Network.dyn_peer[3] 	lookupHopsSig:mean 	3.2876712328767
scalar Network.dyn_peer[4] 	lookupTimeSig:mean 	0.42734375
scalar Network.dyn_peer[4] 	lookupStabilitySig:mean 	0.73526601285266
scalar Network.dyn_peer[4] 	lookupHopsSig:mean 	3.578125
scalar Network.dyn_peer[5] 	lookupTimeSig:mean 	0.2640625
scalar Network.dyn_peer[5] 	lookupStabilitySig:mean 	0.75829979346599
scalar Network.dyn_peer[5] 	lookupHopsSig:mean 	2.046875
scalar Network.dyn_peer[6] 	lookupTimeSig:mean 	0.36953125
scalar Network.dyn_peer[6] 	lookupStabilitySig:mean 	0.75761733364197
scalar Network.dyn_peer[6] 	lookupHopsSig:mean 	3.03125
scalar Network.dyn_peer[7] 	lookupTimeSig:mean 	0.37463768115942
scalar Network.dyn_peer[7] 	lookupStabilitySig:mean 	0.76317772738959
scalar Network.dyn_peer[7] 	lookupHopsSig:mean 	3.0144927536232
scalar Network.dyn_peer[8] 	lookupTimeSig:mean 	0.27642857142857
scalar Network.dyn_peer[8] 	lookupStabilitySig:mean 	0.74627344677491
scalar Network.dyn_peer[8] 	lookupHopsSig:mean 	2.1857142857143
scalar Network.dyn_peer[9] 	lookupTimeSig:mean 	0.37
scalar Network.dyn_peer[9] 	lookupStabilitySig:mean 	0.7607890740037
scalar Network.dyn_peer[9] 	lookupHopsSig:mean 	3.0214285714286
scalar Network.dyn_peer[10] 	lookupTimeSig:mean 	0.2744
scalar Network.dyn_peer[10] 	lookupStabilitySig:mean 	0.7445292916894
scalar Network.dyn_peer[10] 	lookupHopsSig:mean 	2.16
scalar Network.dyn_peer[11] 	lookupTimeSig:mean 	0.27407407407407
scalar Network.dyn_peer[11] 	lookupStabilitySig:mean 	0.74586232536369
scalar Network.dyn_peer[11] 	lookupHopsSig:mean 	2.1777777777778
scalar Network.dyn_peer[12] 	lookupTimeSig:mean 	0.41438848920863
scalar Network.dyn_peer[12] 	lookupStabilitySig:mean 	0.74773068860066
scalar Network.dyn_peer[12] 	lookupHopsSig:mean 	3.431654676259
scalar Network.dyn_peer[13] 	lookupTimeSig:mean 	0.37230769230769
scalar Network.dyn_peer[13] 	lookupStabilitySig:mean 	0.75957551870782
scalar Network.dyn_peer[13] 	lookupHopsSig:mean 	3.0538461538462
scalar Network.dyn_peer[14] 	lookupTimeSig:mean 	0.41417322834646
scalar Network.dyn_peer[14] 	lookupStabilitySig:mean 	0.7362065162715
scalar Network.dyn_peer[14] 	lookupHopsSig:mean 	3.4724409448819
scalar Network.dyn_peer[15] 	lookupTimeSig:mean 	0.34575163398693
scalar Network.dyn_peer[15] 	lookupStabilitySig:mean 	0.78421528606974
scalar Network.dyn_peer[15] 	lookupHopsSig:mean 	2.7385620915033
scalar Network.dyn_peer[16] 	lookupTimeSig:mean 	0.36544117647059
scalar Network.dyn_peer[16] 	lookupStabilitySig:mean 	0.76017811557497
scalar Network.dyn_peer[16] 	lookupHopsSig:mean 	2.9558823529412
scalar Network.dyn_peer[17] 	lookupTimeSig:mean 	0.39253731343284
scalar Network.dyn_peer[17] 	lookupStabilitySig:mean 	0.75454358302001
scalar Network.dyn_peer[17] 	lookupHopsSig:mean 	3.2313432835821
scalar Network.dyn_peer[18] 	lookupTimeSig:mean 	0.37611940298507
scalar Network.dyn_peer[18] 	lookupStabilitySig:mean 	0.75242309211128
scalar Network.dyn_peer[18] 	lookupHopsSig:mean 	3.0597014925373
scalar Network.dyn_peer[19] 	lookupTimeSig:mean 	0.40888888888889
scalar Network.dyn_peer[19] 	lookupStabilitySig:mean 	0.75644041385364
scalar Network.dyn_peer[19] 	lookupHopsSig:mean 	3.3851851851852
scalar Network.dyn_peer[20] 	lookupTimeSig:mean 	0.3844262295082
scalar Network.dyn_peer[20] 	lookupStabilitySig:mean 	0.73120978712791
scalar Network.dyn_peer[20] 	lookupHopsSig:mean 	3.2131147540984
scalar Network.dyn_peer[21] 	lookupTimeSig:mean 	0.41094890510949
scalar Network.dyn_peer[21] 	lookupStabilitySig:mean 	0.74840927624354
scalar Network.dyn_peer[21] 	lookupHopsSig:mean 	3.4160583941606
scalar Network.dyn_peer[22] 	lookupTimeSig:mean 	0.38705035971223
scalar Network.dyn_peer[22] 	lookupStabilitySig:mean 	0.75558989642443
scalar Network.dyn_peer[22] 	lookupHopsSig:mean 	3.1726618705036
scalar Network.dyn_peer[23] 	lookupTimeSig:mean 	0.4218487394958
scalar Network.dyn_peer[23] 	lookupStabilitySig:mean 	0.72928109524005
scalar Network.dyn_peer[23] 	lookupHopsSig:mean 	3.5798319327731
scalar Network.dyn_peer[24] 	lookupTimeSig:mean 	0.41544117647059
scalar Network.dyn_peer[24] 	lookupStabilitySig:mean 	0.74227915193393
scalar Network.dyn_peer[24] 	lookupHopsSig:mean 	3.4852941176471
scalar Network.dyn_peer[25] 	lookupTimeSig:mean 	0.40697674418605
scalar Network.dyn_peer[25] 	lookupStabilitySig:mean 	0.74680753473857
scalar Network.dyn_peer[25] 	lookupHopsSig:mean 	3.4031007751938
scalar Network.dyn_peer[26] 	lookupTimeSig:mean 	0.40422535211268
scalar Network.dyn_peer[26] 	lookupStabilitySig:mean 	0.75213292684459
scalar Network.dyn_peer[26] 	lookupHopsSig:mean 	3.3450704225352
scalar Network.dyn_peer[27] 	lookupTimeSig:mean 	0.3828125
scalar Network.dyn_peer[27] 	lookupStabilitySig:mean 	0.75899403929361
scalar Network.dyn_peer[27] 	lookupHopsSig:mean 	3.1171875
scalar Network.dyn_peer[28] 	lookupTimeSig:mean 	0.4015037593985
scalar Network.dyn_peer[28] 	lookupStabilitySig:mean 	0.7524996999147
scalar Network.dyn_peer[28] 	lookupHopsSig:mean 	3.3383458646617
scalar Network.dyn_peer[29] 	lookupTimeSig:mean 	0.39477611940299
scalar Network.dyn_peer[29] 	lookupStabilitySig:mean 	0.74742780132358
scalar Network.dyn_peer[29] 	lookupHopsSig:mean 	3.2611940298507
scalar Network.dyn_peer[30] 	lookupTimeSig:mean 	0.39457364341085
scalar Network.dyn_peer[30] 	lookupStabilitySig:mean 	0.74801022651815
scalar Network.dyn_peer[30] 	lookupHopsSig:mean 	3.2480620155039
scalar Network.dyn_peer[31] 	lookupTimeSig:mean 	0.38285714285714
scalar Network.dyn_peer[31] 	lookupStabilitySig:mean 	0.75850544799385
scalar Network.dyn_peer[31] 	lookupHopsSig:mean 	3.1428571428571
