version 2
run Stability-106-20130524-20:24:15-3483
attr configname Stability
attr datetime 20130524-20:24:15
attr experiment Stability
attr inifile omnetpp.ini
attr iterationvars $0=1e-4
attr iterationvars2 "$0=1e-4, $repetition=6"
attr measurement $0=1e-4
attr network Network
attr processid 3483
attr repetition 6
attr replication #6
attr resultdir results
attr runnumber 106
attr seedset 106

scalar Network.dyn_peer[0] 	lookupTimeSig:mean 	0.39558823529412
scalar Network.dyn_peer[0] 	lookupStabilitySig:mean 	0.75449152477086
scalar Network.dyn_peer[0] 	lookupHopsSig:mean 	3.2132352941176
scalar Network.dyn_peer[1] 	lookupTimeSig:mean 	0.42213740458015
scalar Network.dyn_peer[1] 	lookupStabilitySig:mean 	0.75215300255036
scalar Network.dyn_peer[1] 	lookupHopsSig:mean 	3.4885496183206
scalar Network.dyn_peer[2] 	lookupTimeSig:mean 	0.37948717948718
scalar Network.dyn_peer[2] 	lookupStabilitySig:mean 	0.74600665500531
scalar Network.dyn_peer[2] 	lookupHopsSig:mean 	3.0940170940171
scalar Network.dyn_peer[3] 	lookupTimeSig:mean 	0.40833333333333
scalar Network.dyn_peer[3] 	lookupStabilitySig:mean 	0.75187417538837
scalar Network.dyn_peer[3] 	lookupHopsSig:mean 	3.3560606060606
scalar Network.dyn_peer[4] 	lookupTimeSig:mean 	0.41916666666667
scalar Network.dyn_peer[4] 	lookupStabilitySig:mean 	0.73975234365401
scalar Network.dyn_peer[4] 	lookupHopsSig:mean 	3.475
scalar Network.dyn_peer[5] 	lookupTimeSig:mean 	0.40955882352941
scalar Network.dyn_peer[5] 	lookupStabilitySig:mean 	0.7531354956685
scalar Network.dyn_peer[5] 	lookupHopsSig:mean 	3.3455882352941
scalar Network.dyn_peer[6] 	lookupTimeSig:mean 	0.40666666666667
scalar Network.dyn_peer[6] 	lookupStabilitySig:mean 	0.72753338551459
scalar Network.dyn_peer[6] 	lookupHopsSig:mean 	3.3583333333333
scalar Network.dyn_peer[7] 	lookupTimeSig:mean 	0.39075630252101
scalar Network.dyn_peer[7] 	lookupStabilitySig:mean 	0.72927496325569
scalar Network.dyn_peer[7] 	lookupHopsSig:mean 	3.2100840336134
scalar Network.dyn_peer[8] 	lookupTimeSig:mean 	0.42519083969466
scalar Network.dyn_peer[8] 	lookupStabilitySig:mean 	0.74195457065037
scalar Network.dyn_peer[8] 	lookupHopsSig:mean 	3.5190839694656
scalar Network.dyn_peer[9] 	lookupTimeSig:mean 	0.42158273381295
scalar Network.dyn_peer[9] 	lookupStabilitySig:mean 	0.75841065112957
scalar Network.dyn_peer[9] 	lookupHopsSig:mean 	3.4676258992806
scalar Network.dyn_peer[10] 	lookupTimeSig:mean 	0.40979020979021
scalar Network.dyn_peer[10] 	lookupStabilitySig:mean 	0.76844744333489
scalar Network.dyn_peer[10] 	lookupHopsSig:mean 	3.3286713286713
scalar Network.dyn_peer[11] 	lookupTimeSig:mean 	0.43355704697987
scalar Network.dyn_peer[11] 	lookupStabilitySig:mean 	0.76870928887253
scalar Network.dyn_peer[11] 	lookupHopsSig:mean 	3.5771812080537
scalar Network.dyn_peer[12] 	lookupTimeSig:mean 	0.39677419354839
scalar Network.dyn_peer[12] 	lookupStabilitySig:mean 	0.75313491868456
scalar Network.dyn_peer[12] 	lookupHopsSig:mean 	3.241935483871
scalar Network.dyn_peer[13] 	lookupTimeSig:mean 	0.425
scalar Network.dyn_peer[13] 	lookupStabilitySig:mean 	0.74677685513983
scalar Network.dyn_peer[13] 	lookupHopsSig:mean 	3.5073529411765
scalar Network.dyn_peer[14] 	lookupTimeSig:mean 	0.40756302521008
scalar Network.dyn_peer[14] 	lookupStabilitySig:mean 	0.72914611936367
scalar Network.dyn_peer[14] 	lookupHopsSig:mean 	3.3865546218487
scalar Network.dyn_peer[15] 	lookupTimeSig:mean 	0.41654135338346
scalar Network.dyn_peer[15] 	lookupStabilitySig:mean 	0.74690094723233
scalar Network.dyn_peer[15] 	lookupHopsSig:mean 	3.4210526315789
scalar Network.dyn_peer[16] 	lookupTimeSig:mean 	0.42773722627737
scalar Network.dyn_peer[16] 	lookupStabilitySig:mean 	0.75322002657846
scalar Network.dyn_peer[16] 	lookupHopsSig:mean 	3.5255474452555
scalar Network.dyn_peer[17] 	lookupTimeSig:mean 	0.41167883211679
scalar Network.dyn_peer[17] 	lookupStabilitySig:mean 	0.74657940207879
scalar Network.dyn_peer[17] 	lookupHopsSig:mean 	3.3795620437956
scalar Network.dyn_peer[18] 	lookupTimeSig:mean 	0.40793650793651
scalar Network.dyn_peer[18] 	lookupStabilitySig:mean 	0.74991859461639
scalar Network.dyn_peer[18] 	lookupHopsSig:mean 	3.3730158730159
scalar Network.dyn_peer[19] 	lookupTimeSig:mean 	0.40813008130081
scalar Network.dyn_peer[19] 	lookupStabilitySig:mean 	0.74421235390492
scalar Network.dyn_peer[19] 	lookupHopsSig:mean 	3.349593495935
scalar Network.dyn_peer[20] 	lookupTimeSig:mean 	0.26302521008403
scalar Network.dyn_peer[20] 	lookupStabilitySig:mean 	0.73529411764706
scalar Network.dyn_peer[20] 	lookupHopsSig:mean 	2.1176470588235
scalar Network.dyn_peer[21] 	lookupTimeSig:mean 	0.40672268907563
scalar Network.dyn_peer[21] 	lookupStabilitySig:mean 	0.73480231508988
scalar Network.dyn_peer[21] 	lookupHopsSig:mean 	3.3529411764706
scalar Network.dyn_peer[22] 	lookupTimeSig:mean 	0.40413223140496
scalar Network.dyn_peer[22] 	lookupStabilitySig:mean 	0.73467129970754
scalar Network.dyn_peer[22] 	lookupHopsSig:mean 	3.3305785123967
scalar Network.dyn_peer[23] 	lookupTimeSig:mean 	0.39477611940299
scalar Network.dyn_peer[23] 	lookupStabilitySig:mean 	0.75910484411323
scalar Network.dyn_peer[23] 	lookupHopsSig:mean 	3.1940298507463
scalar Network.dyn_peer[24] 	lookupTimeSig:mean 	0.43565891472868
scalar Network.dyn_peer[24] 	lookupStabilitySig:mean 	0.7410019574788
scalar Network.dyn_peer[24] 	lookupHopsSig:mean 	3.6201550387597
scalar Network.dyn_peer[25] 	lookupTimeSig:mean 	0.43076923076923
scalar Network.dyn_peer[25] 	lookupStabilitySig:mean 	0.75355327305208
scalar Network.dyn_peer[25] 	lookupHopsSig:mean 	3.5594405594406
scalar Network.dyn_peer[26] 	lookupTimeSig:mean 	0.38448275862069
scalar Network.dyn_peer[26] 	lookupStabilitySig:mean 	0.7463911462511
scalar Network.dyn_peer[26] 	lookupHopsSig:mean 	3.1465517241379
scalar Network.dyn_peer[27] 	lookupTimeSig:mean 	0.42457627118644
scalar Network.dyn_peer[27] 	lookupStabilitySig:mean 	0.72984957379305
scalar Network.dyn_peer[27] 	lookupHopsSig:mean 	3.5508474576271
scalar Network.dyn_peer[28] 	lookupTimeSig:mean 	0.3696
scalar Network.dyn_peer[28] 	lookupStabilitySig:mean 	0.75063308140635
scalar Network.dyn_peer[28] 	lookupHopsSig:mean 	2.968
scalar Network.dyn_peer[29] 	lookupTimeSig:mean 	0.40432098765432
scalar Network.dyn_peer[29] 	lookupStabilitySig:mean 	0.78447593097793
scalar Network.dyn_peer[29] 	lookupHopsSig:mean 	3.2777777777778
scalar Network.dyn_peer[30] 	lookupTimeSig:mean 	0.42805755395683
scalar Network.dyn_peer[30] 	lookupStabilitySig:mean 	0.74234466398095
scalar Network.dyn_peer[30] 	lookupHopsSig:mean 	3.5323741007194
scalar Network.dyn_peer[31] 	lookupTimeSig:mean 	0.40846153846154
scalar Network.dyn_peer[31] 	lookupStabilitySig:mean 	0.7480116158294
scalar Network.dyn_peer[31] 	lookupHopsSig:mean 	3.3615384615385
