version 2
run Stability-103-20130524-20:24:09-3483
attr configname Stability
attr datetime 20130524-20:24:09
attr experiment Stability
attr inifile omnetpp.ini
attr iterationvars $0=1e-4
attr iterationvars2 "$0=1e-4, $repetition=3"
attr measurement $0=1e-4
attr network Network
attr processid 3483
attr repetition 3
attr replication #3
attr resultdir results
attr runnumber 103
attr seedset 103

scalar Network.dyn_peer[0] 	lookupTimeSig:mean 	0.43884892086331
scalar Network.dyn_peer[0] 	lookupStabilitySig:mean 	0.74980594516604
scalar Network.dyn_peer[0] 	lookupHopsSig:mean 	3.6258992805755
scalar Network.dyn_peer[1] 	lookupTimeSig:mean 	0.40396825396825
scalar Network.dyn_peer[1] 	lookupStabilitySig:mean 	0.7559888398807
scalar Network.dyn_peer[1] 	lookupHopsSig:mean 	3.2936507936508
scalar Network.dyn_peer[2] 	lookupTimeSig:mean 	0.41590909090909
scalar Network.dyn_peer[2] 	lookupStabilitySig:mean 	0.75217202202784
scalar Network.dyn_peer[2] 	lookupHopsSig:mean 	3.4090909090909
scalar Network.dyn_peer[3] 	lookupTimeSig:mean 	0.40985915492958
scalar Network.dyn_peer[3] 	lookupStabilitySig:mean 	0.77102605892267
scalar Network.dyn_peer[3] 	lookupHopsSig:mean 	3.3239436619718
scalar Network.dyn_peer[4] 	lookupTimeSig:mean 	0.38657718120805
scalar Network.dyn_peer[4] 	lookupStabilitySig:mean 	0.77601917241794
scalar Network.dyn_peer[4] 	lookupHopsSig:mean 	3.1073825503356
scalar Network.dyn_peer[5] 	lookupTimeSig:mean 	0.41428571428571
scalar Network.dyn_peer[5] 	lookupStabilitySig:mean 	0.7522629135037
scalar Network.dyn_peer[5] 	lookupHopsSig:mean 	3.3968253968254
scalar Network.dyn_peer[6] 	lookupTimeSig:mean 	0.38979591836735
scalar Network.dyn_peer[6] 	lookupStabilitySig:mean 	0.77051506261183
scalar Network.dyn_peer[6] 	lookupHopsSig:mean 	3.1156462585034
scalar Network.dyn_peer[7] 	lookupTimeSig:mean 	0.3985401459854
scalar Network.dyn_peer[7] 	lookupStabilitySig:mean 	0.76875380555807
scalar Network.dyn_peer[7] 	lookupHopsSig:mean 	3.2262773722628
scalar Network.dyn_peer[8] 	lookupTimeSig:mean 	0.39064748201439
scalar Network.dyn_peer[8] 	lookupStabilitySig:mean 	0.75878338231672
scalar Network.dyn_peer[8] 	lookupHopsSig:mean 	3.136690647482
scalar Network.dyn_peer[9] 	lookupTimeSig:mean 	0.38196721311475
scalar Network.dyn_peer[9] 	lookupStabilitySig:mean 	0.75446981365686
scalar Network.dyn_peer[9] 	lookupHopsSig:mean 	3.0819672131148
scalar Network.dyn_peer[10] 	lookupTimeSig:mean 	0.38534482758621
scalar Network.dyn_peer[10] 	lookupStabilitySig:mean 	0.74296774114643
scalar Network.dyn_peer[10] 	lookupHopsSig:mean 	3.1293103448276
scalar Network.dyn_peer[11] 	lookupTimeSig:mean 	0.41267605633803
scalar Network.dyn_peer[11] 	lookupStabilitySig:mean 	0.7617243252511
scalar Network.dyn_peer[11] 	lookupHopsSig:mean 	3.3661971830986
scalar Network.dyn_peer[12] 	lookupTimeSig:mean 	0.40535714285714
scalar Network.dyn_peer[12] 	lookupStabilitySig:mean 	0.73694247063915
scalar Network.dyn_peer[12] 	lookupHopsSig:mean 	3.3392857142857
scalar Network.dyn_peer[13] 	lookupTimeSig:mean 	0.41448275862069
scalar Network.dyn_peer[13] 	lookupStabilitySig:mean 	0.76919923655946
scalar Network.dyn_peer[13] 	lookupHopsSig:mean 	3.3655172413793
scalar Network.dyn_peer[14] 	lookupTimeSig:mean 	0.43636363636364
scalar Network.dyn_peer[14] 	lookupStabilitySig:mean 	0.74020289911404
scalar Network.dyn_peer[14] 	lookupHopsSig:mean 	3.6363636363636
scalar Network.dyn_peer[15] 	lookupTimeSig:mean 	0.36410256410256
scalar Network.dyn_peer[15] 	lookupStabilitySig:mean 	0.75478707225277
scalar Network.dyn_peer[15] 	lookupHopsSig:mean 	2.9230769230769
scalar Network.dyn_peer[16] 	lookupTimeSig:mean 	0.4241610738255
scalar Network.dyn_peer[16] 	lookupStabilitySig:mean 	0.7596235602294
scalar Network.dyn_peer[16] 	lookupHopsSig:mean 	3.4697986577181
scalar Network.dyn_peer[17] 	lookupTimeSig:mean 	0.3869918699187
scalar Network.dyn_peer[17] 	lookupStabilitySig:mean 	0.75012825452155
scalar Network.dyn_peer[17] 	lookupHopsSig:mean 	3.1382113821138
scalar Network.dyn_peer[18] 	lookupTimeSig:mean 	0.41617647058824
scalar Network.dyn_peer[18] 	lookupStabilitySig:mean 	0.75796508590472
scalar Network.dyn_peer[18] 	lookupHopsSig:mean 	3.3970588235294
scalar Network.dyn_peer[19] 	lookupTimeSig:mean 	0.4113475177305
scalar Network.dyn_peer[19] 	lookupStabilitySig:mean 	0.76416749690811
scalar Network.dyn_peer[19] 	lookupHopsSig:mean 	3.354609929078
scalar Network.dyn_peer[20] 	lookupTimeSig:mean 	0.40461538461538
scalar Network.dyn_peer[20] 	lookupStabilitySig:mean 	0.75980256562336
scalar Network.dyn_peer[20] 	lookupHopsSig:mean 	3.3
scalar Network.dyn_peer[21] 	lookupTimeSig:mean 	0.39466666666667
scalar Network.dyn_peer[21] 	lookupStabilitySig:mean 	0.77427131459117
scalar Network.dyn_peer[21] 	lookupHopsSig:mean 	3.1666666666667
scalar Network.dyn_peer[22] 	lookupTimeSig:mean 	0.38496240601504
scalar Network.dyn_peer[22] 	lookupStabilitySig:mean 	0.77280528627728
scalar Network.dyn_peer[22] 	lookupHopsSig:mean 	3.0977443609023
scalar Network.dyn_peer[23] 	lookupTimeSig:mean 	0.4078125
scalar Network.dyn_peer[23] 	lookupStabilitySig:mean 	0.75150390298222
scalar Network.dyn_peer[23] 	lookupHopsSig:mean 	3.3359375
scalar Network.dyn_peer[24] 	lookupTimeSig:mean 	0.39444444444444
scalar Network.dyn_peer[24] 	lookupStabilitySig:mean 	0.77170423861955
scalar Network.dyn_peer[24] 	lookupHopsSig:mean 	3.1666666666667
scalar Network.dyn_peer[25] 	lookupTimeSig:mean 	0.42105263157895
scalar Network.dyn_peer[25] 	lookupStabilitySig:mean 	0.75580175002491
scalar Network.dyn_peer[25] 	lookupHopsSig:mean 	3.4586466165414
scalar Network.dyn_peer[26] 	lookupTimeSig:mean 	0.44347826086956
scalar Network.dyn_peer[26] 	lookupStabilitySig:mean 	0.75349232306083
scalar Network.dyn_peer[26] 	lookupHopsSig:mean 	3.6666666666667
scalar Network.dyn_peer[27] 	lookupTimeSig:mean 	0.4158273381295
scalar Network.dyn_peer[27] 	lookupStabilitySig:mean 	0.76326195474902
scalar Network.dyn_peer[27] 	lookupHopsSig:mean 	3.3884892086331
scalar Network.dyn_peer[28] 	lookupTimeSig:mean 	0.42
scalar Network.dyn_peer[28] 	lookupStabilitySig:mean 	0.75576800731597
scalar Network.dyn_peer[28] 	lookupHopsSig:mean 	3.4444444444444
scalar Network.dyn_peer[29] 	lookupTimeSig:mean 	0.44166666666667
scalar Network.dyn_peer[29] 	lookupStabilitySig:mean 	0.73489461469774
scalar Network.dyn_peer[29] 	lookupHopsSig:mean 	3.7
scalar Network.dyn_peer[30] 	lookupTimeSig:mean 	0.4006711409396
scalar Network.dyn_peer[30] 	lookupStabilitySig:mean 	0.77855964367522
scalar Network.dyn_peer[30] 	lookupHopsSig:mean 	3.2214765100671
scalar Network.dyn_peer[31] 	lookupTimeSig:mean 	0.41317829457364
scalar Network.dyn_peer[31] 	lookupStabilitySig:mean 	0.75043514307386
scalar Network.dyn_peer[31] 	lookupHopsSig:mean 	3.3875968992248
