version 2
run Stability-45-20130524-20:22:25-3483
attr configname Stability
attr datetime 20130524-20:22:25
attr experiment Stability
attr inifile omnetpp.ini
attr iterationvars $0=1e2
attr iterationvars2 "$0=1e2, $repetition=5"
attr measurement $0=1e2
attr network Network
attr processid 3483
attr repetition 5
attr replication #5
attr resultdir results
attr runnumber 45
attr seedset 45

scalar Network.dyn_peer[0] 	lookupTimeSig:mean 	0.31437125748503
scalar Network.dyn_peer[0] 	lookupStabilitySig:mean 	0.83032532238184
scalar Network.dyn_peer[0] 	lookupHopsSig:mean 	2.3353293413174
scalar Network.dyn_peer[1] 	lookupTimeSig:mean 	0.31269035532995
scalar Network.dyn_peer[1] 	lookupStabilitySig:mean 	0.83085354189696
scalar Network.dyn_peer[1] 	lookupHopsSig:mean 	2.2893401015228
scalar Network.dyn_peer[2] 	lookupTimeSig:mean 	0.35483870967742
scalar Network.dyn_peer[2] 	lookupStabilitySig:mean 	0.85625229140203
scalar Network.dyn_peer[2] 	lookupHopsSig:mean 	2.7548387096774
scalar Network.dyn_peer[3] 	lookupTimeSig:mean 	0.37204968944099
scalar Network.dyn_peer[3] 	lookupStabilitySig:mean 	0.84758288023403
scalar Network.dyn_peer[3] 	lookupHopsSig:mean 	2.9254658385093
scalar Network.dyn_peer[4] 	lookupTimeSig:mean 	0.35866666666667
scalar Network.dyn_peer[4] 	lookupStabilitySig:mean 	0.86394778790573
scalar Network.dyn_peer[4] 	lookupHopsSig:mean 	2.8
scalar Network.dyn_peer[5] 	lookupTimeSig:mean 	0.348125
scalar Network.dyn_peer[5] 	lookupStabilitySig:mean 	0.84787389524281
scalar Network.dyn_peer[5] 	lookupHopsSig:mean 	2.68125
scalar Network.dyn_peer[6] 	lookupTimeSig:mean 	0.31976047904192
scalar Network.dyn_peer[6] 	lookupStabilitySig:mean 	0.83908568164278
scalar Network.dyn_peer[6] 	lookupHopsSig:mean 	2.3892215568862
scalar Network.dyn_peer[7] 	lookupTimeSig:mean 	0.3658064516129
scalar Network.dyn_peer[7] 	lookupStabilitySig:mean 	0.84940647989992
scalar Network.dyn_peer[7] 	lookupHopsSig:mean 	2.8709677419355
scalar Network.dyn_peer[8] 	lookupTimeSig:mean 	0.39768786127168
scalar Network.dyn_peer[8] 	lookupStabilitySig:mean 	0.88579403574584
scalar Network.dyn_peer[8] 	lookupHopsSig:mean 	3.1618497109827
scalar Network.dyn_peer[9] 	lookupTimeSig:mean 	0.325
scalar Network.dyn_peer[9] 	lookupStabilitySig:mean 	0.8250139336451
scalar Network.dyn_peer[9] 	lookupHopsSig:mean 	2.45625
scalar Network.dyn_peer[10] 	lookupTimeSig:mean 	0.30416666666667
scalar Network.dyn_peer[10] 	lookupStabilitySig:mean 	0.83004280842752
scalar Network.dyn_peer[10] 	lookupHopsSig:mean 	2.2321428571429
scalar Network.dyn_peer[11] 	lookupTimeSig:mean 	0.33313609467456
scalar Network.dyn_peer[11] 	lookupStabilitySig:mean 	0.83056699022783
scalar Network.dyn_peer[11] 	lookupHopsSig:mean 	2.5207100591716
scalar Network.dyn_peer[12] 	lookupTimeSig:mean 	0.36315789473684
scalar Network.dyn_peer[12] 	lookupStabilitySig:mean 	0.8444109645329
scalar Network.dyn_peer[12] 	lookupHopsSig:mean 	2.8486842105263
scalar Network.dyn_peer[13] 	lookupTimeSig:mean 	0.39261363636364
scalar Network.dyn_peer[13] 	lookupStabilitySig:mean 	0.88171717811334
scalar Network.dyn_peer[13] 	lookupHopsSig:mean 	3.1136363636364
scalar Network.dyn_peer[14] 	lookupTimeSig:mean 	0.36845637583893
scalar Network.dyn_peer[14] 	lookupStabilitySig:mean 	0.86676902557729
scalar Network.dyn_peer[14] 	lookupHopsSig:mean 	2.8993288590604
scalar Network.dyn_peer[15] 	lookupTimeSig:mean 	0.37142857142857
scalar Network.dyn_peer[15] 	lookupStabilitySig:mean 	0.85522534150858
scalar Network.dyn_peer[15] 	lookupHopsSig:mean 	2.9319727891156
scalar Network.dyn_peer[16] 	lookupTimeSig:mean 	0.38620689655172
scalar Network.dyn_peer[16] 	lookupStabilitySig:mean 	0.88719654449358
scalar Network.dyn_peer[16] 	lookupHopsSig:mean 	3.0459770114943
scalar Network.dyn_peer[17] 	lookupTimeSig:mean 	0.30616438356164
scalar Network.dyn_peer[17] 	lookupStabilitySig:mean 	0.84871415352474
scalar Network.dyn_peer[17] 	lookupHopsSig:mean 	2.2808219178082
scalar Network.dyn_peer[18] 	lookupTimeSig:mean 	0.39657534246575
scalar Network.dyn_peer[18] 	lookupStabilitySig:mean 	0.86994211495637
scalar Network.dyn_peer[18] 	lookupHopsSig:mean 	3.1849315068493
scalar Network.dyn_peer[19] 	lookupTimeSig:mean 	0.36896551724138
scalar Network.dyn_peer[19] 	lookupStabilitySig:mean 	0.86448206475069
scalar Network.dyn_peer[19] 	lookupHopsSig:mean 	2.9103448275862
scalar Network.dyn_peer[20] 	lookupTimeSig:mean 	0.32457142857143
scalar Network.dyn_peer[20] 	lookupStabilitySig:mean 	0.82443012055542
scalar Network.dyn_peer[20] 	lookupHopsSig:mean 	2.4285714285714
scalar Network.dyn_peer[21] 	lookupTimeSig:mean 	0.35642458100559
scalar Network.dyn_peer[21] 	lookupStabilitySig:mean 	0.86522990108244
scalar Network.dyn_peer[21] 	lookupHopsSig:mean 	2.7430167597765
scalar Network.dyn_peer[22] 	lookupTimeSig:mean 	0.31746031746032
scalar Network.dyn_peer[22] 	lookupStabilitySig:mean 	0.85338920072983
scalar Network.dyn_peer[22] 	lookupHopsSig:mean 	2.3439153439153
scalar Network.dyn_peer[23] 	lookupTimeSig:mean 	0.33235294117647
scalar Network.dyn_peer[23] 	lookupStabilitySig:mean 	0.8666517889675
scalar Network.dyn_peer[23] 	lookupHopsSig:mean 	2.5117647058824
scalar Network.dyn_peer[24] 	lookupTimeSig:mean 	0.34935064935065
scalar Network.dyn_peer[24] 	lookupStabilitySig:mean 	0.83876360703695
scalar Network.dyn_peer[24] 	lookupHopsSig:mean 	2.7012987012987
scalar Network.dyn_peer[25] 	lookupTimeSig:mean 	0.41133333333333
scalar Network.dyn_peer[25] 	lookupStabilitySig:mean 	0.87189802394559
scalar Network.dyn_peer[25] 	lookupHopsSig:mean 	3.3333333333333
scalar Network.dyn_peer[26] 	lookupTimeSig:mean 	0.3728813559322
scalar Network.dyn_peer[26] 	lookupStabilitySig:mean 	0.88325900842283
scalar Network.dyn_peer[26] 	lookupHopsSig:mean 	2.9152542372881
scalar Network.dyn_peer[27] 	lookupTimeSig:mean 	0.38269230769231
scalar Network.dyn_peer[27] 	lookupStabilitySig:mean 	0.87594716600739
scalar Network.dyn_peer[27] 	lookupHopsSig:mean 	3.0384615384615
scalar Network.dyn_peer[28] 	lookupTimeSig:mean 	0.3753164556962
scalar Network.dyn_peer[28] 	lookupStabilitySig:mean 	0.87197473088775
scalar Network.dyn_peer[28] 	lookupHopsSig:mean 	2.9620253164557
scalar Network.dyn_peer[29] 	lookupTimeSig:mean 	0.36111111111111
scalar Network.dyn_peer[29] 	lookupStabilitySig:mean 	0.87309105593113
scalar Network.dyn_peer[29] 	lookupHopsSig:mean 	2.8086419753086
scalar Network.dyn_peer[30] 	lookupTimeSig:mean 	0.33623188405797
scalar Network.dyn_peer[30] 	lookupStabilitySig:mean 	0.84356279924944
scalar Network.dyn_peer[30] 	lookupHopsSig:mean 	2.5942028985507
scalar Network.dyn_peer[31] 	lookupTimeSig:mean 	0.35891891891892
scalar Network.dyn_peer[31] 	lookupStabilitySig:mean 	0.90159077175163
scalar Network.dyn_peer[31] 	lookupHopsSig:mean 	2.7621621621622
