version 2
run Stability-50-20130524-20:22:35-3483
attr configname Stability
attr datetime 20130524-20:22:35
attr experiment Stability
attr inifile omnetpp.ini
attr iterationvars $0=1e1
attr iterationvars2 "$0=1e1, $repetition=0"
attr measurement $0=1e1
attr network Network
attr processid 3483
attr repetition 0
attr replication #0
attr resultdir results
attr runnumber 50
attr seedset 50

scalar Network.dyn_peer[0] 	lookupTimeSig:mean 	0.39142857142857
scalar Network.dyn_peer[0] 	lookupStabilitySig:mean 	0.78644542765937
scalar Network.dyn_peer[0] 	lookupHopsSig:mean 	3.1428571428571
scalar Network.dyn_peer[1] 	lookupTimeSig:mean 	0.41219512195122
scalar Network.dyn_peer[1] 	lookupStabilitySig:mean 	0.75624827704415
scalar Network.dyn_peer[1] 	lookupHopsSig:mean 	3.3821138211382
scalar Network.dyn_peer[2] 	lookupTimeSig:mean 	0.40751879699248
scalar Network.dyn_peer[2] 	lookupStabilitySig:mean 	0.77374312637332
scalar Network.dyn_peer[2] 	lookupHopsSig:mean 	3.3157894736842
scalar Network.dyn_peer[3] 	lookupTimeSig:mean 	0.38561151079137
scalar Network.dyn_peer[3] 	lookupStabilitySig:mean 	0.78048246778655
scalar Network.dyn_peer[3] 	lookupHopsSig:mean 	3.0863309352518
scalar Network.dyn_peer[4] 	lookupTimeSig:mean 	0.41240875912409
scalar Network.dyn_peer[4] 	lookupStabilitySig:mean 	0.773818631201
scalar Network.dyn_peer[4] 	lookupHopsSig:mean 	3.3576642335766
scalar Network.dyn_peer[5] 	lookupTimeSig:mean 	0.3969696969697
scalar Network.dyn_peer[5] 	lookupStabilitySig:mean 	0.77128344002377
scalar Network.dyn_peer[5] 	lookupHopsSig:mean 	3.2121212121212
scalar Network.dyn_peer[6] 	lookupTimeSig:mean 	0.40970149253731
scalar Network.dyn_peer[6] 	lookupStabilitySig:mean 	0.7732064085804
scalar Network.dyn_peer[6] 	lookupHopsSig:mean 	3.3358208955224
scalar Network.dyn_peer[7] 	lookupTimeSig:mean 	0.37986111111111
scalar Network.dyn_peer[7] 	lookupStabilitySig:mean 	0.79174152784981
scalar Network.dyn_peer[7] 	lookupHopsSig:mean 	3.0208333333333
scalar Network.dyn_peer[8] 	lookupTimeSig:mean 	0.37295081967213
scalar Network.dyn_peer[8] 	lookupStabilitySig:mean 	0.76442272153485
scalar Network.dyn_peer[8] 	lookupHopsSig:mean 	2.9918032786885
scalar Network.dyn_peer[9] 	lookupTimeSig:mean 	0.42785714285714
scalar Network.dyn_peer[9] 	lookupStabilitySig:mean 	0.76894506991708
scalar Network.dyn_peer[9] 	lookupHopsSig:mean 	3.5071428571429
scalar Network.dyn_peer[10] 	lookupTimeSig:mean 	0.38045112781955
scalar Network.dyn_peer[10] 	lookupStabilitySig:mean 	0.76833348529399
scalar Network.dyn_peer[10] 	lookupHopsSig:mean 	3.0451127819549
scalar Network.dyn_peer[11] 	lookupTimeSig:mean 	0.37851239669421
scalar Network.dyn_peer[11] 	lookupStabilitySig:mean 	0.75995601365758
scalar Network.dyn_peer[11] 	lookupHopsSig:mean 	3.0495867768595
scalar Network.dyn_peer[12] 	lookupTimeSig:mean 	0.40740740740741
scalar Network.dyn_peer[12] 	lookupStabilitySig:mean 	0.77373092302846
scalar Network.dyn_peer[12] 	lookupHopsSig:mean 	3.3111111111111
scalar Network.dyn_peer[13] 	lookupTimeSig:mean 	0.38283582089552
scalar Network.dyn_peer[13] 	lookupStabilitySig:mean 	0.77338798704154
scalar Network.dyn_peer[13] 	lookupHopsSig:mean 	3.0671641791045
scalar Network.dyn_peer[14] 	lookupTimeSig:mean 	0.35950413223141
scalar Network.dyn_peer[14] 	lookupStabilitySig:mean 	0.76942432868826
scalar Network.dyn_peer[14] 	lookupHopsSig:mean 	2.8595041322314
scalar Network.dyn_peer[15] 	lookupTimeSig:mean 	0.36083333333333
scalar Network.dyn_peer[15] 	lookupStabilitySig:mean 	0.76605571814192
scalar Network.dyn_peer[15] 	lookupHopsSig:mean 	2.875
scalar Network.dyn_peer[16] 	lookupTimeSig:mean 	0.40088495575221
scalar Network.dyn_peer[16] 	lookupStabilitySig:mean 	0.74167969094309
scalar Network.dyn_peer[16] 	lookupHopsSig:mean 	3.2920353982301
scalar Network.dyn_peer[17] 	lookupTimeSig:mean 	0.34615384615385
scalar Network.dyn_peer[17] 	lookupStabilitySig:mean 	0.76051337111136
scalar Network.dyn_peer[17] 	lookupHopsSig:mean 	2.7350427350427
scalar Network.dyn_peer[18] 	lookupTimeSig:mean 	0.376
scalar Network.dyn_peer[18] 	lookupStabilitySig:mean 	0.76879044251144
scalar Network.dyn_peer[18] 	lookupHopsSig:mean 	3.016
scalar Network.dyn_peer[19] 	lookupTimeSig:mean 	0.41103448275862
scalar Network.dyn_peer[19] 	lookupStabilitySig:mean 	0.78715837283124
scalar Network.dyn_peer[19] 	lookupHopsSig:mean 	3.3310344827586
scalar Network.dyn_peer[20] 	lookupTimeSig:mean 	0.39603174603175
scalar Network.dyn_peer[20] 	lookupStabilitySig:mean 	0.76338206799257
scalar Network.dyn_peer[20] 	lookupHopsSig:mean 	3.2142857142857
scalar Network.dyn_peer[21] 	lookupTimeSig:mean 	0.37596899224806
scalar Network.dyn_peer[21] 	lookupStabilitySig:mean 	0.77593759437229
scalar Network.dyn_peer[21] 	lookupHopsSig:mean 	3.0077519379845
scalar Network.dyn_peer[22] 	lookupTimeSig:mean 	0.40955414012739
scalar Network.dyn_peer[22] 	lookupStabilitySig:mean 	0.79382480479255
scalar Network.dyn_peer[22] 	lookupHopsSig:mean 	3.2993630573248
scalar Network.dyn_peer[23] 	lookupTimeSig:mean 	0.40617283950617
scalar Network.dyn_peer[23] 	lookupStabilitySig:mean 	0.79695121005729
scalar Network.dyn_peer[23] 	lookupHopsSig:mean 	3.2592592592593
scalar Network.dyn_peer[24] 	lookupTimeSig:mean 	0.4202614379085
scalar Network.dyn_peer[24] 	lookupStabilitySig:mean 	0.78477083785715
scalar Network.dyn_peer[24] 	lookupHopsSig:mean 	3.4117647058824
scalar Network.dyn_peer[25] 	lookupTimeSig:mean 	0.38345864661654
scalar Network.dyn_peer[25] 	lookupStabilitySig:mean 	0.77319317137388
scalar Network.dyn_peer[25] 	lookupHopsSig:mean 	3.0751879699248
scalar Network.dyn_peer[26] 	lookupTimeSig:mean 	0.41492537313433
scalar Network.dyn_peer[26] 	lookupStabilitySig:mean 	0.76218686878348
scalar Network.dyn_peer[26] 	lookupHopsSig:mean 	3.3880597014925
scalar Network.dyn_peer[27] 	lookupTimeSig:mean 	0.4
scalar Network.dyn_peer[27] 	lookupStabilitySig:mean 	0.76906444514735
scalar Network.dyn_peer[27] 	lookupHopsSig:mean 	3.2424242424242
scalar Network.dyn_peer[28] 	lookupTimeSig:mean 	0.40718954248366
scalar Network.dyn_peer[28] 	lookupStabilitySig:mean 	0.79032672817508
scalar Network.dyn_peer[28] 	lookupHopsSig:mean 	3.281045751634
scalar Network.dyn_peer[29] 	lookupTimeSig:mean 	0.3984375
scalar Network.dyn_peer[29] 	lookupStabilitySig:mean 	0.7709891541017
scalar Network.dyn_peer[29] 	lookupHopsSig:mean 	3.234375
scalar Network.dyn_peer[30] 	lookupTimeSig:mean 	0.37810218978102
scalar Network.dyn_peer[30] 	lookupStabilitySig:mean 	0.77600603957191
scalar Network.dyn_peer[30] 	lookupHopsSig:mean 	3.014598540146
scalar Network.dyn_peer[31] 	lookupTimeSig:mean 	0.43409090909091
scalar Network.dyn_peer[31] 	lookupStabilitySig:mean 	0.75726556332048
scalar Network.dyn_peer[31] 	lookupHopsSig:mean 	3.5833333333333
