version 2
run Stability-73-20130524-20:23:16-3483
attr configname Stability
attr datetime 20130524-20:23:16
attr experiment Stability
attr inifile omnetpp.ini
attr iterationvars $0=1e-1
attr iterationvars2 "$0=1e-1, $repetition=3"
attr measurement $0=1e-1
attr network Network
attr processid 3483
attr repetition 3
attr replication #3
attr resultdir results
attr runnumber 73
attr seedset 73

scalar Network.dyn_peer[0] 	lookupTimeSig:mean 	0.453125
scalar Network.dyn_peer[0] 	lookupStabilitySig:mean 	0.73350046634732
scalar Network.dyn_peer[0] 	lookupHopsSig:mean 	3.78125
scalar Network.dyn_peer[1] 	lookupTimeSig:mean 	0.44210526315789
scalar Network.dyn_peer[1] 	lookupStabilitySig:mean 	0.75528055360835
scalar Network.dyn_peer[1] 	lookupHopsSig:mean 	3.6315789473684
scalar Network.dyn_peer[2] 	lookupTimeSig:mean 	0.44087591240876
scalar Network.dyn_peer[2] 	lookupStabilitySig:mean 	0.73751333120694
scalar Network.dyn_peer[2] 	lookupHopsSig:mean 	3.6423357664234
scalar Network.dyn_peer[3] 	lookupTimeSig:mean 	0.46594202898551
scalar Network.dyn_peer[3] 	lookupStabilitySig:mean 	0.73407228817434
scalar Network.dyn_peer[3] 	lookupHopsSig:mean 	3.8913043478261
scalar Network.dyn_peer[4] 	lookupTimeSig:mean 	0.4489932885906
scalar Network.dyn_peer[4] 	lookupStabilitySig:mean 	0.74720329138757
scalar Network.dyn_peer[4] 	lookupHopsSig:mean 	3.7046979865772
scalar Network.dyn_peer[5] 	lookupTimeSig:mean 	0.42962962962963
scalar Network.dyn_peer[5] 	lookupStabilitySig:mean 	0.76605586226984
scalar Network.dyn_peer[5] 	lookupHopsSig:mean 	3.4938271604938
scalar Network.dyn_peer[6] 	lookupTimeSig:mean 	0.43333333333333
scalar Network.dyn_peer[6] 	lookupStabilitySig:mean 	0.73688139196372
scalar Network.dyn_peer[6] 	lookupHopsSig:mean 	3.5833333333333
scalar Network.dyn_peer[7] 	lookupTimeSig:mean 	0.41411042944785
scalar Network.dyn_peer[7] 	lookupStabilitySig:mean 	0.7626401020751
scalar Network.dyn_peer[7] 	lookupHopsSig:mean 	3.3496932515337
scalar Network.dyn_peer[8] 	lookupTimeSig:mean 	0.42857142857143
scalar Network.dyn_peer[8] 	lookupStabilitySig:mean 	0.77269803324626
scalar Network.dyn_peer[8] 	lookupHopsSig:mean 	3.4761904761905
scalar Network.dyn_peer[9] 	lookupTimeSig:mean 	0.38897058823529
scalar Network.dyn_peer[9] 	lookupStabilitySig:mean 	0.75313377195476
scalar Network.dyn_peer[9] 	lookupHopsSig:mean 	3.125
scalar Network.dyn_peer[10] 	lookupTimeSig:mean 	0.43629032258065
scalar Network.dyn_peer[10] 	lookupStabilitySig:mean 	0.7331597864057
scalar Network.dyn_peer[10] 	lookupHopsSig:mean 	3.6290322580645
scalar Network.dyn_peer[11] 	lookupTimeSig:mean 	0.41914893617021
scalar Network.dyn_peer[11] 	lookupStabilitySig:mean 	0.74632397632227
scalar Network.dyn_peer[11] 	lookupHopsSig:mean 	3.4255319148936
scalar Network.dyn_peer[12] 	lookupTimeSig:mean 	0.41408450704225
scalar Network.dyn_peer[12] 	lookupStabilitySig:mean 	0.74844459195057
scalar Network.dyn_peer[12] 	lookupHopsSig:mean 	3.387323943662
scalar Network.dyn_peer[13] 	lookupTimeSig:mean 	0.45099337748344
scalar Network.dyn_peer[13] 	lookupStabilitySig:mean 	0.75131241953778
scalar Network.dyn_peer[13] 	lookupHopsSig:mean 	3.7218543046358
scalar Network.dyn_peer[14] 	lookupTimeSig:mean 	0.39315068493151
scalar Network.dyn_peer[14] 	lookupStabilitySig:mean 	0.76757848562596
scalar Network.dyn_peer[14] 	lookupHopsSig:mean 	3.1506849315068
scalar Network.dyn_peer[15] 	lookupTimeSig:mean 	0.43935483870968
scalar Network.dyn_peer[15] 	lookupStabilitySig:mean 	0.76184348661092
scalar Network.dyn_peer[15] 	lookupHopsSig:mean 	3.6
scalar Network.dyn_peer[16] 	lookupTimeSig:mean 	0.41710526315789
scalar Network.dyn_peer[16] 	lookupStabilitySig:mean 	0.7540889264354
scalar Network.dyn_peer[16] 	lookupHopsSig:mean 	3.3881578947368
scalar Network.dyn_peer[17] 	lookupTimeSig:mean 	0.41418918918919
scalar Network.dyn_peer[17] 	lookupStabilitySig:mean 	0.75395869198129
scalar Network.dyn_peer[17] 	lookupHopsSig:mean 	3.3648648648649
scalar Network.dyn_peer[18] 	lookupTimeSig:mean 	0.44513888888889
scalar Network.dyn_peer[18] 	lookupStabilitySig:mean 	0.74525308233893
scalar Network.dyn_peer[18] 	lookupHopsSig:mean 	3.6805555555556
scalar Network.dyn_peer[19] 	lookupTimeSig:mean 	0.42283950617284
scalar Network.dyn_peer[19] 	lookupStabilitySig:mean 	0.77276923108478
scalar Network.dyn_peer[19] 	lookupHopsSig:mean 	3.4259259259259
scalar Network.dyn_peer[20] 	lookupTimeSig:mean 	0.39343065693431
scalar Network.dyn_peer[20] 	lookupStabilitySig:mean 	0.7489336798525
scalar Network.dyn_peer[20] 	lookupHopsSig:mean 	3.1751824817518
scalar Network.dyn_peer[21] 	lookupTimeSig:mean 	0.41895424836601
scalar Network.dyn_peer[21] 	lookupStabilitySig:mean 	0.7601231664687
scalar Network.dyn_peer[21] 	lookupHopsSig:mean 	3.3986928104575
scalar Network.dyn_peer[22] 	lookupTimeSig:mean 	0.44538461538462
scalar Network.dyn_peer[22] 	lookupStabilitySig:mean 	0.7266648531963
scalar Network.dyn_peer[22] 	lookupHopsSig:mean 	3.7
scalar Network.dyn_peer[23] 	lookupTimeSig:mean 	0.41549295774648
scalar Network.dyn_peer[23] 	lookupStabilitySig:mean 	0.74418733633635
scalar Network.dyn_peer[23] 	lookupHopsSig:mean 	3.3943661971831
scalar Network.dyn_peer[24] 	lookupTimeSig:mean 	0.4319018404908
scalar Network.dyn_peer[24] 	lookupStabilitySig:mean 	0.76823536705431
scalar Network.dyn_peer[24] 	lookupHopsSig:mean 	3.5153374233129
scalar Network.dyn_peer[25] 	lookupTimeSig:mean 	0.41260504201681
scalar Network.dyn_peer[25] 	lookupStabilitySig:mean 	0.72699832831736
scalar Network.dyn_peer[25] 	lookupHopsSig:mean 	3.4033613445378
scalar Network.dyn_peer[26] 	lookupTimeSig:mean 	0.41242236024845
scalar Network.dyn_peer[26] 	lookupStabilitySig:mean 	0.77525014749595
scalar Network.dyn_peer[26] 	lookupHopsSig:mean 	3.3291925465839
scalar Network.dyn_peer[27] 	lookupTimeSig:mean 	0.42721518987342
scalar Network.dyn_peer[27] 	lookupStabilitySig:mean 	0.76241200227479
scalar Network.dyn_peer[27] 	lookupHopsSig:mean 	3.4746835443038
scalar Network.dyn_peer[28] 	lookupTimeSig:mean 	0.4392
scalar Network.dyn_peer[28] 	lookupStabilitySig:mean 	0.7228344937861
scalar Network.dyn_peer[28] 	lookupHopsSig:mean 	3.648
scalar Network.dyn_peer[29] 	lookupTimeSig:mean 	0.44925373134328
scalar Network.dyn_peer[29] 	lookupStabilitySig:mean 	0.71987754643075
scalar Network.dyn_peer[29] 	lookupHopsSig:mean 	3.7537313432836
scalar Network.dyn_peer[30] 	lookupTimeSig:mean 	0.44964028776978
scalar Network.dyn_peer[30] 	lookupStabilitySig:mean 	0.7399036888328
scalar Network.dyn_peer[30] 	lookupHopsSig:mean 	3.7410071942446
scalar Network.dyn_peer[31] 	lookupTimeSig:mean 	0.45140845070423
scalar Network.dyn_peer[31] 	lookupStabilitySig:mean 	0.74518561798712
scalar Network.dyn_peer[31] 	lookupHopsSig:mean 	3.7394366197183
