version 2
run Stability-88-20130524-20:23:42-3483
attr configname Stability
attr datetime 20130524-20:23:42
attr experiment Stability
attr inifile omnetpp.ini
attr iterationvars $0=1e-2
attr iterationvars2 "$0=1e-2, $repetition=8"
attr measurement $0=1e-2
attr network Network
attr processid 3483
attr repetition 8
attr replication #8
attr resultdir results
attr runnumber 88
attr seedset 88

scalar Network.dyn_peer[0] 	lookupTimeSig:mean 	0.37338709677419
scalar Network.dyn_peer[0] 	lookupStabilitySig:mean 	0.74307102845201
scalar Network.dyn_peer[0] 	lookupHopsSig:mean 	3.0725806451613
scalar Network.dyn_peer[1] 	lookupTimeSig:mean 	0.38854961832061
scalar Network.dyn_peer[1] 	lookupStabilitySig:mean 	0.75188466670518
scalar Network.dyn_peer[1] 	lookupHopsSig:mean 	3.175572519084
scalar Network.dyn_peer[2] 	lookupTimeSig:mean 	0.40751879699248
scalar Network.dyn_peer[2] 	lookupStabilitySig:mean 	0.74315180899785
scalar Network.dyn_peer[2] 	lookupHopsSig:mean 	3.390977443609
scalar Network.dyn_peer[3] 	lookupTimeSig:mean 	0.27094017094017
scalar Network.dyn_peer[3] 	lookupStabilitySig:mean 	0.74458257618368
scalar Network.dyn_peer[3] 	lookupHopsSig:mean 	2.1794871794872
scalar Network.dyn_peer[4] 	lookupTimeSig:mean 	0.27899159663866
scalar Network.dyn_peer[4] 	lookupStabilitySig:mean 	0.73296621523234
scalar Network.dyn_peer[4] 	lookupHopsSig:mean 	2.2689075630252
scalar Network.dyn_peer[5] 	lookupTimeSig:mean 	0.41014492753623
scalar Network.dyn_peer[5] 	lookupStabilitySig:mean 	0.74738833486386
scalar Network.dyn_peer[5] 	lookupHopsSig:mean 	3.3985507246377
scalar Network.dyn_peer[6] 	lookupTimeSig:mean 	0.39398496240601
scalar Network.dyn_peer[6] 	lookupStabilitySig:mean 	0.75699139547471
scalar Network.dyn_peer[6] 	lookupHopsSig:mean 	3.2406015037594
scalar Network.dyn_peer[7] 	lookupTimeSig:mean 	0.4027027027027
scalar Network.dyn_peer[7] 	lookupStabilitySig:mean 	0.75956251486079
scalar Network.dyn_peer[7] 	lookupHopsSig:mean 	3.3175675675676
scalar Network.dyn_peer[8] 	lookupTimeSig:mean 	0.26015625
scalar Network.dyn_peer[8] 	lookupStabilitySig:mean 	0.76505287108012
scalar Network.dyn_peer[8] 	lookupHopsSig:mean 	2.0078125
scalar Network.dyn_peer[9] 	lookupTimeSig:mean 	0.40942028985507
scalar Network.dyn_peer[9] 	lookupStabilitySig:mean 	0.74506066375129
scalar Network.dyn_peer[9] 	lookupHopsSig:mean 	3.3913043478261
scalar Network.dyn_peer[10] 	lookupTimeSig:mean 	0.42397260273973
scalar Network.dyn_peer[10] 	lookupStabilitySig:mean 	0.75471012717853
scalar Network.dyn_peer[10] 	lookupHopsSig:mean 	3.527397260274
scalar Network.dyn_peer[11] 	lookupTimeSig:mean 	0.37720588235294
scalar Network.dyn_peer[11] 	lookupStabilitySig:mean 	0.76396674391649
scalar Network.dyn_peer[11] 	lookupHopsSig:mean 	3.0882352941176
scalar Network.dyn_peer[12] 	lookupTimeSig:mean 	0.38602941176471
scalar Network.dyn_peer[12] 	lookupStabilitySig:mean 	0.75947319171118
scalar Network.dyn_peer[12] 	lookupHopsSig:mean 	3.1617647058824
scalar Network.dyn_peer[13] 	lookupTimeSig:mean 	0.38106060606061
scalar Network.dyn_peer[13] 	lookupStabilitySig:mean 	0.75378075654082
scalar Network.dyn_peer[13] 	lookupHopsSig:mean 	3.1136363636364
scalar Network.dyn_peer[14] 	lookupTimeSig:mean 	0.39791666666667
scalar Network.dyn_peer[14] 	lookupStabilitySig:mean 	0.75967365892656
scalar Network.dyn_peer[14] 	lookupHopsSig:mean 	3.2916666666667
scalar Network.dyn_peer[15] 	lookupTimeSig:mean 	0.38741258741259
scalar Network.dyn_peer[15] 	lookupStabilitySig:mean 	0.76678612587283
scalar Network.dyn_peer[15] 	lookupHopsSig:mean 	3.1538461538462
scalar Network.dyn_peer[16] 	lookupTimeSig:mean 	0.39090909090909
scalar Network.dyn_peer[16] 	lookupStabilitySig:mean 	0.74729557662751
scalar Network.dyn_peer[16] 	lookupHopsSig:mean 	3.2045454545455
scalar Network.dyn_peer[17] 	lookupTimeSig:mean 	0.36666666666667
scalar Network.dyn_peer[17] 	lookupStabilitySig:mean 	0.74388652527705
scalar Network.dyn_peer[17] 	lookupHopsSig:mean 	3.0083333333333
scalar Network.dyn_peer[18] 	lookupTimeSig:mean 	0.41102941176471
scalar Network.dyn_peer[18] 	lookupStabilitySig:mean 	0.73339186759446
scalar Network.dyn_peer[18] 	lookupHopsSig:mean 	3.4705882352941
scalar Network.dyn_peer[19] 	lookupTimeSig:mean 	0.39568965517241
scalar Network.dyn_peer[19] 	lookupStabilitySig:mean 	0.72676959375305
scalar Network.dyn_peer[19] 	lookupHopsSig:mean 	3.3275862068966
scalar Network.dyn_peer[20] 	lookupTimeSig:mean 	0.38287671232877
scalar Network.dyn_peer[20] 	lookupStabilitySig:mean 	0.77020860481242
scalar Network.dyn_peer[20] 	lookupHopsSig:mean 	3.1095890410959
scalar Network.dyn_peer[21] 	lookupTimeSig:mean 	0.37417218543046
scalar Network.dyn_peer[21] 	lookupStabilitySig:mean 	0.77626348130208
scalar Network.dyn_peer[21] 	lookupHopsSig:mean 	3.0331125827815
scalar Network.dyn_peer[22] 	lookupTimeSig:mean 	0.3937984496124
scalar Network.dyn_peer[22] 	lookupStabilitySig:mean 	0.7509304218052
scalar Network.dyn_peer[22] 	lookupHopsSig:mean 	3.2170542635659
scalar Network.dyn_peer[23] 	lookupTimeSig:mean 	0.38870967741935
scalar Network.dyn_peer[23] 	lookupStabilitySig:mean 	0.74998495042805
scalar Network.dyn_peer[23] 	lookupHopsSig:mean 	3.1854838709677
scalar Network.dyn_peer[24] 	lookupTimeSig:mean 	0.44661016949153
scalar Network.dyn_peer[24] 	lookupStabilitySig:mean 	0.71104288162758
scalar Network.dyn_peer[24] 	lookupHopsSig:mean 	3.8389830508475
scalar Network.dyn_peer[25] 	lookupTimeSig:mean 	0.41769230769231
scalar Network.dyn_peer[25] 	lookupStabilitySig:mean 	0.73727645144726
scalar Network.dyn_peer[25] 	lookupHopsSig:mean 	3.5
scalar Network.dyn_peer[26] 	lookupTimeSig:mean 	0.38444444444444
scalar Network.dyn_peer[26] 	lookupStabilitySig:mean 	0.75773791894317
scalar Network.dyn_peer[26] 	lookupHopsSig:mean 	3.1111111111111
scalar Network.dyn_peer[27] 	lookupTimeSig:mean 	0.26666666666667
scalar Network.dyn_peer[27] 	lookupStabilitySig:mean 	0.76196932943835
scalar Network.dyn_peer[27] 	lookupHopsSig:mean 	2.0652173913043
scalar Network.dyn_peer[28] 	lookupTimeSig:mean 	0.36739130434783
scalar Network.dyn_peer[28] 	lookupStabilitySig:mean 	0.76788603697998
scalar Network.dyn_peer[28] 	lookupHopsSig:mean 	2.9492753623188
scalar Network.dyn_peer[29] 	lookupTimeSig:mean 	0.41304347826087
scalar Network.dyn_peer[29] 	lookupStabilitySig:mean 	0.77149146154338
scalar Network.dyn_peer[29] 	lookupHopsSig:mean 	3.3913043478261
scalar Network.dyn_peer[30] 	lookupTimeSig:mean 	0.41532846715328
scalar Network.dyn_peer[30] 	lookupStabilitySig:mean 	0.75083694140678
scalar Network.dyn_peer[30] 	lookupHopsSig:mean 	3.4598540145985
scalar Network.dyn_peer[31] 	lookupTimeSig:mean 	0.39655172413793
scalar Network.dyn_peer[31] 	lookupStabilitySig:mean 	0.75094800320422
scalar Network.dyn_peer[31] 	lookupHopsSig:mean 	3.2965517241379
