version 2
run Stability-104-20130524-20:24:11-3483
attr configname Stability
attr datetime 20130524-20:24:11
attr experiment Stability
attr inifile omnetpp.ini
attr iterationvars $0=1e-4
attr iterationvars2 "$0=1e-4, $repetition=4"
attr measurement $0=1e-4
attr network Network
attr processid 3483
attr repetition 4
attr replication #4
attr resultdir results
attr runnumber 104
attr seedset 104

scalar Network.dyn_peer[0] 	lookupTimeSig:mean 	0.42876712328767
scalar Network.dyn_peer[0] 	lookupStabilitySig:mean 	0.75493844206866
scalar Network.dyn_peer[0] 	lookupHopsSig:mean 	3.527397260274
scalar Network.dyn_peer[1] 	lookupTimeSig:mean 	0.25803571428571
scalar Network.dyn_peer[1] 	lookupStabilitySig:mean 	0.73660714285714
scalar Network.dyn_peer[1] 	lookupHopsSig:mean 	2.1071428571429
scalar Network.dyn_peer[2] 	lookupTimeSig:mean 	0.41138211382114
scalar Network.dyn_peer[2] 	lookupStabilitySig:mean 	0.73723266676553
scalar Network.dyn_peer[2] 	lookupHopsSig:mean 	3.390243902439
scalar Network.dyn_peer[3] 	lookupTimeSig:mean 	0.43565891472868
scalar Network.dyn_peer[3] 	lookupStabilitySig:mean 	0.74735632626874
scalar Network.dyn_peer[3] 	lookupHopsSig:mean 	3.6201550387597
scalar Network.dyn_peer[4] 	lookupTimeSig:mean 	0.4158940397351
scalar Network.dyn_peer[4] 	lookupStabilitySig:mean 	0.77325734584932
scalar Network.dyn_peer[4] 	lookupHopsSig:mean 	3.3774834437086
scalar Network.dyn_peer[5] 	lookupTimeSig:mean 	0.38031496062992
scalar Network.dyn_peer[5] 	lookupStabilitySig:mean 	0.75735124961774
scalar Network.dyn_peer[5] 	lookupHopsSig:mean 	3.0944881889764
scalar Network.dyn_peer[6] 	lookupTimeSig:mean 	0.4259842519685
scalar Network.dyn_peer[6] 	lookupStabilitySig:mean 	0.73707190749976
scalar Network.dyn_peer[6] 	lookupHopsSig:mean 	3.5275590551181
scalar Network.dyn_peer[7] 	lookupTimeSig:mean 	0.42330827067669
scalar Network.dyn_peer[7] 	lookupStabilitySig:mean 	0.74604766827105
scalar Network.dyn_peer[7] 	lookupHopsSig:mean 	3.5263157894737
scalar Network.dyn_peer[8] 	lookupTimeSig:mean 	0.375
scalar Network.dyn_peer[8] 	lookupStabilitySig:mean 	0.78561279979358
scalar Network.dyn_peer[8] 	lookupHopsSig:mean 	2.9932432432432
scalar Network.dyn_peer[9] 	lookupTimeSig:mean 	0.4375
scalar Network.dyn_peer[9] 	lookupStabilitySig:mean 	0.74797604961649
scalar Network.dyn_peer[9] 	lookupHopsSig:mean 	3.6102941176471
scalar Network.dyn_peer[10] 	lookupTimeSig:mean 	0.43083333333333
scalar Network.dyn_peer[10] 	lookupStabilitySig:mean 	0.73813450302308
scalar Network.dyn_peer[10] 	lookupHopsSig:mean 	3.6
scalar Network.dyn_peer[11] 	lookupTimeSig:mean 	0.41603053435114
scalar Network.dyn_peer[11] 	lookupStabilitySig:mean 	0.75018613940489
scalar Network.dyn_peer[11] 	lookupHopsSig:mean 	3.412213740458
scalar Network.dyn_peer[12] 	lookupTimeSig:mean 	0.39798657718121
scalar Network.dyn_peer[12] 	lookupStabilitySig:mean 	0.78733941685133
scalar Network.dyn_peer[12] 	lookupHopsSig:mean 	3.2013422818792
scalar Network.dyn_peer[13] 	lookupTimeSig:mean 	0.42072072072072
scalar Network.dyn_peer[13] 	lookupStabilitySig:mean 	0.71453155063697
scalar Network.dyn_peer[13] 	lookupHopsSig:mean 	3.5135135135135
scalar Network.dyn_peer[14] 	lookupTimeSig:mean 	0.4015625
scalar Network.dyn_peer[14] 	lookupStabilitySig:mean 	0.74930802331073
scalar Network.dyn_peer[14] 	lookupHopsSig:mean 	3.3046875
scalar Network.dyn_peer[15] 	lookupTimeSig:mean 	0.39565217391304
scalar Network.dyn_peer[15] 	lookupStabilitySig:mean 	0.76607009817077
scalar Network.dyn_peer[15] 	lookupHopsSig:mean 	3.2101449275362
scalar Network.dyn_peer[16] 	lookupTimeSig:mean 	0.40454545454545
scalar Network.dyn_peer[16] 	lookupStabilitySig:mean 	0.75322259460209
scalar Network.dyn_peer[16] 	lookupHopsSig:mean 	3.3106060606061
scalar Network.dyn_peer[17] 	lookupTimeSig:mean 	0.39659863945578
scalar Network.dyn_peer[17] 	lookupStabilitySig:mean 	0.77690579031347
scalar Network.dyn_peer[17] 	lookupHopsSig:mean 	3.1972789115646
scalar Network.dyn_peer[18] 	lookupTimeSig:mean 	0.39380530973451
scalar Network.dyn_peer[18] 	lookupStabilitySig:mean 	0.72409568456686
scalar Network.dyn_peer[18] 	lookupHopsSig:mean 	3.2743362831858
scalar Network.dyn_peer[19] 	lookupTimeSig:mean 	0.40267857142857
scalar Network.dyn_peer[19] 	lookupStabilitySig:mean 	0.72212682637785
scalar Network.dyn_peer[19] 	lookupHopsSig:mean 	3.3482142857143
scalar Network.dyn_peer[20] 	lookupTimeSig:mean 	0.41147540983607
scalar Network.dyn_peer[20] 	lookupStabilitySig:mean 	0.74377422295816
scalar Network.dyn_peer[20] 	lookupHopsSig:mean 	3.3852459016393
scalar Network.dyn_peer[21] 	lookupTimeSig:mean 	0.40300751879699
scalar Network.dyn_peer[21] 	lookupStabilitySig:mean 	0.74657652045327
scalar Network.dyn_peer[21] 	lookupHopsSig:mean 	3.3007518796992
scalar Network.dyn_peer[22] 	lookupTimeSig:mean 	0.43538461538462
scalar Network.dyn_peer[22] 	lookupStabilitySig:mean 	0.73664071165885
scalar Network.dyn_peer[22] 	lookupHopsSig:mean 	3.6307692307692
scalar Network.dyn_peer[23] 	lookupTimeSig:mean 	0.41521739130435
scalar Network.dyn_peer[23] 	lookupStabilitySig:mean 	0.74961242257901
scalar Network.dyn_peer[23] 	lookupHopsSig:mean 	3.4130434782609
scalar Network.dyn_peer[24] 	lookupTimeSig:mean 	0.41545454545455
scalar Network.dyn_peer[24] 	lookupStabilitySig:mean 	0.71707709147172
scalar Network.dyn_peer[24] 	lookupHopsSig:mean 	3.4727272727273
scalar Network.dyn_peer[25] 	lookupTimeSig:mean 	0.40862068965517
scalar Network.dyn_peer[25] 	lookupStabilitySig:mean 	0.73301671464638
scalar Network.dyn_peer[25] 	lookupHopsSig:mean 	3.3879310344828
scalar Network.dyn_peer[26] 	lookupTimeSig:mean 	0.39921875
scalar Network.dyn_peer[26] 	lookupStabilitySig:mean 	0.75045925485028
scalar Network.dyn_peer[26] 	lookupHopsSig:mean 	3.25
scalar Network.dyn_peer[27] 	lookupTimeSig:mean 	0.40220588235294
scalar Network.dyn_peer[27] 	lookupStabilitySig:mean 	0.74830635423389
scalar Network.dyn_peer[27] 	lookupHopsSig:mean 	3.2867647058824
scalar Network.dyn_peer[28] 	lookupTimeSig:mean 	0.42913385826772
scalar Network.dyn_peer[28] 	lookupStabilitySig:mean 	0.74552618225259
scalar Network.dyn_peer[28] 	lookupHopsSig:mean 	3.5669291338583
scalar Network.dyn_peer[29] 	lookupTimeSig:mean 	0.41180555555556
scalar Network.dyn_peer[29] 	lookupStabilitySig:mean 	0.76798039394069
scalar Network.dyn_peer[29] 	lookupHopsSig:mean 	3.3402777777778
scalar Network.dyn_peer[30] 	lookupTimeSig:mean 	0.3978102189781
scalar Network.dyn_peer[30] 	lookupStabilitySig:mean 	0.76869405005263
scalar Network.dyn_peer[30] 	lookupHopsSig:mean 	3.2262773722628
scalar Network.dyn_peer[31] 	lookupTimeSig:mean 	0.41138211382114
scalar Network.dyn_peer[31] 	lookupStabilitySig:mean 	0.7378730960796
scalar Network.dyn_peer[31] 	lookupHopsSig:mean 	3.390243902439
