version 2
run Stability-91-20130524-20:23:48-3483
attr configname Stability
attr datetime 20130524-20:23:48
attr experiment Stability
attr inifile omnetpp.ini
attr iterationvars $0=1e-3
attr iterationvars2 "$0=1e-3, $repetition=1"
attr measurement $0=1e-3
attr network Network
attr processid 3483
attr repetition 1
attr replication #1
attr resultdir results
attr runnumber 91
attr seedset 91

scalar Network.dyn_peer[0] 	lookupTimeSig:mean 	0.39296875
scalar Network.dyn_peer[0] 	lookupStabilitySig:mean 	0.75445891387062
scalar Network.dyn_peer[0] 	lookupHopsSig:mean 	3.1953125
scalar Network.dyn_peer[1] 	lookupTimeSig:mean 	0.4063829787234
scalar Network.dyn_peer[1] 	lookupStabilitySig:mean 	0.75695701105956
scalar Network.dyn_peer[1] 	lookupHopsSig:mean 	3.290780141844
scalar Network.dyn_peer[2] 	lookupTimeSig:mean 	0.3968253968254
scalar Network.dyn_peer[2] 	lookupStabilitySig:mean 	0.75470262652056
scalar Network.dyn_peer[2] 	lookupHopsSig:mean 	3.2380952380952
scalar Network.dyn_peer[3] 	lookupTimeSig:mean 	0.40140845070423
scalar Network.dyn_peer[3] 	lookupStabilitySig:mean 	0.76861552557003
scalar Network.dyn_peer[3] 	lookupHopsSig:mean 	3.2394366197183
scalar Network.dyn_peer[4] 	lookupTimeSig:mean 	0.38627450980392
scalar Network.dyn_peer[4] 	lookupStabilitySig:mean 	0.77607445597795
scalar Network.dyn_peer[4] 	lookupHopsSig:mean 	3.0849673202614
scalar Network.dyn_peer[5] 	lookupTimeSig:mean 	0.39703703703704
scalar Network.dyn_peer[5] 	lookupStabilitySig:mean 	0.75781226467203
scalar Network.dyn_peer[5] 	lookupHopsSig:mean 	3.2296296296296
scalar Network.dyn_peer[6] 	lookupTimeSig:mean 	0.40229007633588
scalar Network.dyn_peer[6] 	lookupStabilitySig:mean 	0.74356912754704
scalar Network.dyn_peer[6] 	lookupHopsSig:mean 	3.2900763358779
scalar Network.dyn_peer[7] 	lookupTimeSig:mean 	0.39504132231405
scalar Network.dyn_peer[7] 	lookupStabilitySig:mean 	0.73788892323813
scalar Network.dyn_peer[7] 	lookupHopsSig:mean 	3.2231404958678
scalar Network.dyn_peer[8] 	lookupTimeSig:mean 	0.43285714285714
scalar Network.dyn_peer[8] 	lookupStabilitySig:mean 	0.75901425752257
scalar Network.dyn_peer[8] 	lookupHopsSig:mean 	3.5642857142857
scalar Network.dyn_peer[9] 	lookupTimeSig:mean 	0.40166666666667
scalar Network.dyn_peer[9] 	lookupStabilitySig:mean 	0.74018563077164
scalar Network.dyn_peer[9] 	lookupHopsSig:mean 	3.2833333333333
scalar Network.dyn_peer[10] 	lookupTimeSig:mean 	0.41307692307692
scalar Network.dyn_peer[10] 	lookupStabilitySig:mean 	0.75459208991379
scalar Network.dyn_peer[10] 	lookupHopsSig:mean 	3.3923076923077
scalar Network.dyn_peer[11] 	lookupTimeSig:mean 	0.38417721518987
scalar Network.dyn_peer[11] 	lookupStabilitySig:mean 	0.78367037804727
scalar Network.dyn_peer[11] 	lookupHopsSig:mean 	3.0506329113924
scalar Network.dyn_peer[12] 	lookupTimeSig:mean 	0.43088235294118
scalar Network.dyn_peer[12] 	lookupStabilitySig:mean 	0.75495008839404
scalar Network.dyn_peer[12] 	lookupHopsSig:mean 	3.5514705882353
scalar Network.dyn_peer[13] 	lookupTimeSig:mean 	0.40074626865672
scalar Network.dyn_peer[13] 	lookupStabilitySig:mean 	0.75817348635686
scalar Network.dyn_peer[13] 	lookupHopsSig:mean 	3.2611940298507
scalar Network.dyn_peer[14] 	lookupTimeSig:mean 	0.38863636363636
scalar Network.dyn_peer[14] 	lookupStabilitySig:mean 	0.7608224682397
scalar Network.dyn_peer[14] 	lookupHopsSig:mean 	3.1515151515152
scalar Network.dyn_peer[15] 	lookupTimeSig:mean 	0.41013513513514
scalar Network.dyn_peer[15] 	lookupStabilitySig:mean 	0.77023702421905
scalar Network.dyn_peer[15] 	lookupHopsSig:mean 	3.3581081081081
scalar Network.dyn_peer[16] 	lookupTimeSig:mean 	0.37867647058824
scalar Network.dyn_peer[16] 	lookupStabilitySig:mean 	0.76631930948454
scalar Network.dyn_peer[16] 	lookupHopsSig:mean 	3.0514705882353
scalar Network.dyn_peer[17] 	lookupTimeSig:mean 	0.3910447761194
scalar Network.dyn_peer[17] 	lookupStabilitySig:mean 	0.75473793187359
scalar Network.dyn_peer[17] 	lookupHopsSig:mean 	3.1940298507463
scalar Network.dyn_peer[18] 	lookupTimeSig:mean 	0.43812949640288
scalar Network.dyn_peer[18] 	lookupStabilitySig:mean 	0.75347451502524
scalar Network.dyn_peer[18] 	lookupHopsSig:mean 	3.6187050359712
scalar Network.dyn_peer[19] 	lookupTimeSig:mean 	0.41140939597315
scalar Network.dyn_peer[19] 	lookupStabilitySig:mean 	0.76929442333245
scalar Network.dyn_peer[19] 	lookupHopsSig:mean 	3.3288590604027
scalar Network.dyn_peer[20] 	lookupTimeSig:mean 	0.42374100719424
scalar Network.dyn_peer[20] 	lookupStabilitySig:mean 	0.75872505245824
scalar Network.dyn_peer[20] 	lookupHopsSig:mean 	3.4748201438849
scalar Network.dyn_peer[21] 	lookupTimeSig:mean 	0.41142857142857
scalar Network.dyn_peer[21] 	lookupStabilitySig:mean 	0.75707260625703
scalar Network.dyn_peer[21] 	lookupHopsSig:mean 	3.3714285714286
scalar Network.dyn_peer[22] 	lookupTimeSig:mean 	0.41937984496124
scalar Network.dyn_peer[22] 	lookupStabilitySig:mean 	0.7488069848208
scalar Network.dyn_peer[22] 	lookupHopsSig:mean 	3.4496124031008
scalar Network.dyn_peer[23] 	lookupTimeSig:mean 	0.41159420289855
scalar Network.dyn_peer[23] 	lookupStabilitySig:mean 	0.75072849487913
scalar Network.dyn_peer[23] 	lookupHopsSig:mean 	3.3768115942029
scalar Network.dyn_peer[24] 	lookupTimeSig:mean 	0.41269841269841
scalar Network.dyn_peer[24] 	lookupStabilitySig:mean 	0.7336972445427
scalar Network.dyn_peer[24] 	lookupHopsSig:mean 	3.3968253968254
scalar Network.dyn_peer[25] 	lookupTimeSig:mean 	0.40063291139241
scalar Network.dyn_peer[25] 	lookupStabilitySig:mean 	0.77688164959508
scalar Network.dyn_peer[25] 	lookupHopsSig:mean 	3.2341772151899
scalar Network.dyn_peer[26] 	lookupTimeSig:mean 	0.40757575757576
scalar Network.dyn_peer[26] 	lookupStabilitySig:mean 	0.7577800540056
scalar Network.dyn_peer[26] 	lookupHopsSig:mean 	3.3257575757576
scalar Network.dyn_peer[27] 	lookupTimeSig:mean 	0.39266055045872
scalar Network.dyn_peer[27] 	lookupStabilitySig:mean 	0.72316342746036
scalar Network.dyn_peer[27] 	lookupHopsSig:mean 	3.2477064220183
scalar Network.dyn_peer[28] 	lookupTimeSig:mean 	0.3921875
scalar Network.dyn_peer[28] 	lookupStabilitySig:mean 	0.74831160830217
scalar Network.dyn_peer[28] 	lookupHopsSig:mean 	3.1796875
scalar Network.dyn_peer[29] 	lookupTimeSig:mean 	0.4325
scalar Network.dyn_peer[29] 	lookupStabilitySig:mean 	0.7366596436128
scalar Network.dyn_peer[29] 	lookupHopsSig:mean 	3.6
scalar Network.dyn_peer[30] 	lookupTimeSig:mean 	0.41417322834646
scalar Network.dyn_peer[30] 	lookupStabilitySig:mean 	0.74214035099534
scalar Network.dyn_peer[30] 	lookupHopsSig:mean 	3.4173228346457
scalar Network.dyn_peer[31] 	lookupTimeSig:mean 	0.25968992248062
scalar Network.dyn_peer[31] 	lookupStabilitySig:mean 	0.74321705426357
scalar Network.dyn_peer[31] 	lookupHopsSig:mean 	2.0542635658915
