version 2
run Stability-97-20130524-20:23:59-3483
attr configname Stability
attr datetime 20130524-20:23:59
attr experiment Stability
attr inifile omnetpp.ini
attr iterationvars $0=1e-3
attr iterationvars2 "$0=1e-3, $repetition=7"
attr measurement $0=1e-3
attr network Network
attr processid 3483
attr repetition 7
attr replication #7
attr resultdir results
attr runnumber 97
attr seedset 97

scalar Network.dyn_peer[0] 	lookupTimeSig:mean 	0.43291925465839
scalar Network.dyn_peer[0] 	lookupStabilitySig:mean 	0.77702871781791
scalar Network.dyn_peer[0] 	lookupHopsSig:mean 	3.5527950310559
scalar Network.dyn_peer[1] 	lookupTimeSig:mean 	0.38067226890756
scalar Network.dyn_peer[1] 	lookupStabilitySig:mean 	0.74384865873814
scalar Network.dyn_peer[1] 	lookupHopsSig:mean 	3.1008403361345
scalar Network.dyn_peer[2] 	lookupTimeSig:mean 	0.38260869565217
scalar Network.dyn_peer[2] 	lookupStabilitySig:mean 	0.73240198374766
scalar Network.dyn_peer[2] 	lookupHopsSig:mean 	3.1391304347826
scalar Network.dyn_peer[3] 	lookupTimeSig:mean 	0.3953125
scalar Network.dyn_peer[3] 	lookupStabilitySig:mean 	0.74372661547386
scalar Network.dyn_peer[3] 	lookupHopsSig:mean 	3.2265625
scalar Network.dyn_peer[4] 	lookupTimeSig:mean 	0.42357723577236
scalar Network.dyn_peer[4] 	lookupStabilitySig:mean 	0.72928212439202
scalar Network.dyn_peer[4] 	lookupHopsSig:mean 	3.5040650406504
scalar Network.dyn_peer[5] 	lookupTimeSig:mean 	0.39261744966443
scalar Network.dyn_peer[5] 	lookupStabilitySig:mean 	0.77106432232931
scalar Network.dyn_peer[5] 	lookupHopsSig:mean 	3.1610738255034
scalar Network.dyn_peer[6] 	lookupTimeSig:mean 	0.4228813559322
scalar Network.dyn_peer[6] 	lookupStabilitySig:mean 	0.72730224244928
scalar Network.dyn_peer[6] 	lookupHopsSig:mean 	3.5254237288136
scalar Network.dyn_peer[7] 	lookupTimeSig:mean 	0.42142857142857
scalar Network.dyn_peer[7] 	lookupStabilitySig:mean 	0.7622061264036
scalar Network.dyn_peer[7] 	lookupHopsSig:mean 	3.4480519480519
scalar Network.dyn_peer[8] 	lookupTimeSig:mean 	0.44896551724138
scalar Network.dyn_peer[8] 	lookupStabilitySig:mean 	0.74021210665333
scalar Network.dyn_peer[8] 	lookupHopsSig:mean 	3.7172413793103
scalar Network.dyn_peer[9] 	lookupTimeSig:mean 	0.40687022900763
scalar Network.dyn_peer[9] 	lookupStabilitySig:mean 	0.74635549648914
scalar Network.dyn_peer[9] 	lookupHopsSig:mean 	3.3282442748092
scalar Network.dyn_peer[10] 	lookupTimeSig:mean 	0.4047619047619
scalar Network.dyn_peer[10] 	lookupStabilitySig:mean 	0.76491502008471
scalar Network.dyn_peer[10] 	lookupHopsSig:mean 	3.2993197278912
scalar Network.dyn_peer[11] 	lookupTimeSig:mean 	0.42923076923077
scalar Network.dyn_peer[11] 	lookupStabilitySig:mean 	0.73968130883116
scalar Network.dyn_peer[11] 	lookupHopsSig:mean 	3.5692307692308
scalar Network.dyn_peer[12] 	lookupTimeSig:mean 	0.43134328358209
scalar Network.dyn_peer[12] 	lookupStabilitySig:mean 	0.74536201804042
scalar Network.dyn_peer[12] 	lookupHopsSig:mean 	3.5671641791045
scalar Network.dyn_peer[13] 	lookupTimeSig:mean 	0.4013698630137
scalar Network.dyn_peer[13] 	lookupStabilitySig:mean 	0.76213556473233
scalar Network.dyn_peer[13] 	lookupHopsSig:mean 	3.2397260273973
scalar Network.dyn_peer[14] 	lookupTimeSig:mean 	0.41907894736842
scalar Network.dyn_peer[14] 	lookupStabilitySig:mean 	0.77243375943631
scalar Network.dyn_peer[14] 	lookupHopsSig:mean 	3.4144736842105
scalar Network.dyn_peer[15] 	lookupTimeSig:mean 	0.40510948905109
scalar Network.dyn_peer[15] 	lookupStabilitySig:mean 	0.75438272509805
scalar Network.dyn_peer[15] 	lookupHopsSig:mean 	3.2919708029197
scalar Network.dyn_peer[16] 	lookupTimeSig:mean 	0.37380952380952
scalar Network.dyn_peer[16] 	lookupStabilitySig:mean 	0.74631847288933
scalar Network.dyn_peer[16] 	lookupHopsSig:mean 	3.031746031746
scalar Network.dyn_peer[17] 	lookupTimeSig:mean 	0.42556390977444
scalar Network.dyn_peer[17] 	lookupStabilitySig:mean 	0.74081650269883
scalar Network.dyn_peer[17] 	lookupHopsSig:mean 	3.5187969924812
scalar Network.dyn_peer[18] 	lookupTimeSig:mean 	0.41428571428571
scalar Network.dyn_peer[18] 	lookupStabilitySig:mean 	0.73508566053259
scalar Network.dyn_peer[18] 	lookupHopsSig:mean 	3.4365079365079
scalar Network.dyn_peer[19] 	lookupTimeSig:mean 	0.43913043478261
scalar Network.dyn_peer[19] 	lookupStabilitySig:mean 	0.74376434021616
scalar Network.dyn_peer[19] 	lookupHopsSig:mean 	3.6376811594203
scalar Network.dyn_peer[20] 	lookupTimeSig:mean 	0.39126984126984
scalar Network.dyn_peer[20] 	lookupStabilitySig:mean 	0.74899397615994
scalar Network.dyn_peer[20] 	lookupHopsSig:mean 	3.1666666666667
scalar Network.dyn_peer[21] 	lookupTimeSig:mean 	0.43892617449664
scalar Network.dyn_peer[21] 	lookupStabilitySig:mean 	0.75359850505604
scalar Network.dyn_peer[21] 	lookupHopsSig:mean 	3.6174496644295
scalar Network.dyn_peer[22] 	lookupTimeSig:mean 	0.39603174603175
scalar Network.dyn_peer[22] 	lookupStabilitySig:mean 	0.74179463325039
scalar Network.dyn_peer[22] 	lookupHopsSig:mean 	3.2460317460317
scalar Network.dyn_peer[23] 	lookupTimeSig:mean 	0.41716417910448
scalar Network.dyn_peer[23] 	lookupStabilitySig:mean 	0.7409973628263
scalar Network.dyn_peer[23] 	lookupHopsSig:mean 	3.4328358208955
scalar Network.dyn_peer[24] 	lookupTimeSig:mean 	0.25
scalar Network.dyn_peer[24] 	lookupStabilitySig:mean 	0.7587890625
scalar Network.dyn_peer[24] 	lookupHopsSig:mean 	1.9296875
scalar Network.dyn_peer[25] 	lookupTimeSig:mean 	0.40140845070423
scalar Network.dyn_peer[25] 	lookupStabilitySig:mean 	0.75212902125811
scalar Network.dyn_peer[25] 	lookupHopsSig:mean 	3.2676056338028
scalar Network.dyn_peer[26] 	lookupTimeSig:mean 	0.40327868852459
scalar Network.dyn_peer[26] 	lookupStabilitySig:mean 	0.72607646627565
scalar Network.dyn_peer[26] 	lookupHopsSig:mean 	3.3360655737705
scalar Network.dyn_peer[27] 	lookupTimeSig:mean 	0.40653594771242
scalar Network.dyn_peer[27] 	lookupStabilitySig:mean 	0.76049172067467
scalar Network.dyn_peer[27] 	lookupHopsSig:mean 	3.2941176470588
scalar Network.dyn_peer[28] 	lookupTimeSig:mean 	0.40714285714286
scalar Network.dyn_peer[28] 	lookupStabilitySig:mean 	0.76404317183686
scalar Network.dyn_peer[28] 	lookupHopsSig:mean 	3.3071428571429
scalar Network.dyn_peer[29] 	lookupTimeSig:mean 	0.42597402597403
scalar Network.dyn_peer[29] 	lookupStabilitySig:mean 	0.75854441038539
scalar Network.dyn_peer[29] 	lookupHopsSig:mean 	3.474025974026
scalar Network.dyn_peer[30] 	lookupTimeSig:mean 	0.41985815602837
scalar Network.dyn_peer[30] 	lookupStabilitySig:mean 	0.75263890966192
scalar Network.dyn_peer[30] 	lookupHopsSig:mean 	3.4609929078014
scalar Network.dyn_peer[31] 	lookupTimeSig:mean 	0.40491803278689
scalar Network.dyn_peer[31] 	lookupStabilitySig:mean 	0.73686470604334
scalar Network.dyn_peer[31] 	lookupHopsSig:mean 	3.327868852459
