version 2
run Stability-56-20130524-20:22:46-3483
attr configname Stability
attr datetime 20130524-20:22:46
attr experiment Stability
attr inifile omnetpp.ini
attr iterationvars $0=1e1
attr iterationvars2 "$0=1e1, $repetition=6"
attr measurement $0=1e1
attr network Network
attr processid 3483
attr repetition 6
attr replication #6
attr resultdir results
attr runnumber 56
attr seedset 56

scalar Network.dyn_peer[0] 	lookupTimeSig:mean 	0.41578947368421
scalar Network.dyn_peer[0] 	lookupStabilitySig:mean 	0.78865402198004
scalar Network.dyn_peer[0] 	lookupHopsSig:mean 	3.3684210526316
scalar Network.dyn_peer[1] 	lookupTimeSig:mean 	0.39583333333333
scalar Network.dyn_peer[1] 	lookupStabilitySig:mean 	0.80376547055009
scalar Network.dyn_peer[1] 	lookupHopsSig:mean 	3.1488095238095
scalar Network.dyn_peer[2] 	lookupTimeSig:mean 	0.39788732394366
scalar Network.dyn_peer[2] 	lookupStabilitySig:mean 	0.78025614963451
scalar Network.dyn_peer[2] 	lookupHopsSig:mean 	3.2042253521127
scalar Network.dyn_peer[3] 	lookupTimeSig:mean 	0.40902777777778
scalar Network.dyn_peer[3] 	lookupStabilitySig:mean 	0.77365595271759
scalar Network.dyn_peer[3] 	lookupHopsSig:mean 	3.3125
scalar Network.dyn_peer[4] 	lookupTimeSig:mean 	0.41381578947368
scalar Network.dyn_peer[4] 	lookupStabilitySig:mean 	0.77929309375682
scalar Network.dyn_peer[4] 	lookupHopsSig:mean 	3.3486842105263
scalar Network.dyn_peer[5] 	lookupTimeSig:mean 	0.40408163265306
scalar Network.dyn_peer[5] 	lookupStabilitySig:mean 	0.78180789952578
scalar Network.dyn_peer[5] 	lookupHopsSig:mean 	3.2585034013605
scalar Network.dyn_peer[6] 	lookupTimeSig:mean 	0.40610687022901
scalar Network.dyn_peer[6] 	lookupStabilitySig:mean 	0.75580684732617
scalar Network.dyn_peer[6] 	lookupHopsSig:mean 	3.3053435114504
scalar Network.dyn_peer[7] 	lookupTimeSig:mean 	0.38156028368794
scalar Network.dyn_peer[7] 	lookupStabilitySig:mean 	0.77758079220323
scalar Network.dyn_peer[7] 	lookupHopsSig:mean 	3.0425531914894
scalar Network.dyn_peer[8] 	lookupTimeSig:mean 	0.39435483870968
scalar Network.dyn_peer[8] 	lookupStabilitySig:mean 	0.7662421209257
scalar Network.dyn_peer[8] 	lookupHopsSig:mean 	3.2016129032258
scalar Network.dyn_peer[9] 	lookupTimeSig:mean 	0.41438356164384
scalar Network.dyn_peer[9] 	lookupStabilitySig:mean 	0.78053929617195
scalar Network.dyn_peer[9] 	lookupHopsSig:mean 	3.3630136986301
scalar Network.dyn_peer[10] 	lookupTimeSig:mean 	0.40076335877863
scalar Network.dyn_peer[10] 	lookupStabilitySig:mean 	0.76730458385787
scalar Network.dyn_peer[10] 	lookupHopsSig:mean 	3.2519083969466
scalar Network.dyn_peer[11] 	lookupTimeSig:mean 	0.40422535211268
scalar Network.dyn_peer[11] 	lookupStabilitySig:mean 	0.77774512269337
scalar Network.dyn_peer[11] 	lookupHopsSig:mean 	3.2676056338028
scalar Network.dyn_peer[12] 	lookupTimeSig:mean 	0.39545454545455
scalar Network.dyn_peer[12] 	lookupStabilitySig:mean 	0.77622209661499
scalar Network.dyn_peer[12] 	lookupHopsSig:mean 	3.1969696969697
scalar Network.dyn_peer[13] 	lookupTimeSig:mean 	0.40719424460432
scalar Network.dyn_peer[13] 	lookupStabilitySig:mean 	0.7765705305681
scalar Network.dyn_peer[13] 	lookupHopsSig:mean 	3.3021582733813
scalar Network.dyn_peer[14] 	lookupTimeSig:mean 	0.40223880597015
scalar Network.dyn_peer[14] 	lookupStabilitySig:mean 	0.76268104769623
scalar Network.dyn_peer[14] 	lookupHopsSig:mean 	3.2611940298507
scalar Network.dyn_peer[15] 	lookupTimeSig:mean 	0.42631578947368
scalar Network.dyn_peer[15] 	lookupStabilitySig:mean 	0.76386948714131
scalar Network.dyn_peer[15] 	lookupHopsSig:mean 	3.5037593984962
scalar Network.dyn_peer[16] 	lookupTimeSig:mean 	0.38852459016393
scalar Network.dyn_peer[16] 	lookupStabilitySig:mean 	0.75565124203863
scalar Network.dyn_peer[16] 	lookupHopsSig:mean 	3.1475409836066
scalar Network.dyn_peer[17] 	lookupTimeSig:mean 	0.36518518518519
scalar Network.dyn_peer[17] 	lookupStabilitySig:mean 	0.77322592753227
scalar Network.dyn_peer[17] 	lookupHopsSig:mean 	2.8888888888889
scalar Network.dyn_peer[18] 	lookupTimeSig:mean 	0.38492063492064
scalar Network.dyn_peer[18] 	lookupStabilitySig:mean 	0.75818191517499
scalar Network.dyn_peer[18] 	lookupHopsSig:mean 	3.1031746031746
scalar Network.dyn_peer[19] 	lookupTimeSig:mean 	0.40597014925373
scalar Network.dyn_peer[19] 	lookupStabilitySig:mean 	0.76607132208214
scalar Network.dyn_peer[19] 	lookupHopsSig:mean 	3.2985074626866
scalar Network.dyn_peer[20] 	lookupTimeSig:mean 	0.43015873015873
scalar Network.dyn_peer[20] 	lookupStabilitySig:mean 	0.74896636022817
scalar Network.dyn_peer[20] 	lookupHopsSig:mean 	3.5555555555556
scalar Network.dyn_peer[21] 	lookupTimeSig:mean 	0.39857142857143
scalar Network.dyn_peer[21] 	lookupStabilitySig:mean 	0.77520982927776
scalar Network.dyn_peer[21] 	lookupHopsSig:mean 	3.2142857142857
scalar Network.dyn_peer[22] 	lookupTimeSig:mean 	0.41643835616438
scalar Network.dyn_peer[22] 	lookupStabilitySig:mean 	0.77470167643352
scalar Network.dyn_peer[22] 	lookupHopsSig:mean 	3.3835616438356
scalar Network.dyn_peer[23] 	lookupTimeSig:mean 	0.4048
scalar Network.dyn_peer[23] 	lookupStabilitySig:mean 	0.75458566269279
scalar Network.dyn_peer[23] 	lookupHopsSig:mean 	3.304
scalar Network.dyn_peer[24] 	lookupTimeSig:mean 	0.42435897435897
scalar Network.dyn_peer[24] 	lookupStabilitySig:mean 	0.77941711039211
scalar Network.dyn_peer[24] 	lookupHopsSig:mean 	3.4487179487179
scalar Network.dyn_peer[25] 	lookupTimeSig:mean 	0.37647058823529
scalar Network.dyn_peer[25] 	lookupStabilitySig:mean 	0.75054672142851
scalar Network.dyn_peer[25] 	lookupHopsSig:mean 	3.0336134453782
scalar Network.dyn_peer[26] 	lookupTimeSig:mean 	0.3768
scalar Network.dyn_peer[26] 	lookupStabilitySig:mean 	0.75540311801434
scalar Network.dyn_peer[26] 	lookupHopsSig:mean 	3.024
scalar Network.dyn_peer[27] 	lookupTimeSig:mean 	0.41007194244604
scalar Network.dyn_peer[27] 	lookupStabilitySig:mean 	0.77099262314627
scalar Network.dyn_peer[27] 	lookupHopsSig:mean 	3.3309352517986
scalar Network.dyn_peer[28] 	lookupTimeSig:mean 	0.40165289256198
scalar Network.dyn_peer[28] 	lookupStabilitySig:mean 	0.75106604645136
scalar Network.dyn_peer[28] 	lookupHopsSig:mean 	3.2809917355372
scalar Network.dyn_peer[29] 	lookupTimeSig:mean 	0.40191082802548
scalar Network.dyn_peer[29] 	lookupStabilitySig:mean 	0.78814114554293
scalar Network.dyn_peer[29] 	lookupHopsSig:mean 	3.2229299363057
scalar Network.dyn_peer[30] 	lookupTimeSig:mean 	0.40075757575758
scalar Network.dyn_peer[30] 	lookupStabilitySig:mean 	0.76464334797735
scalar Network.dyn_peer[30] 	lookupHopsSig:mean 	3.25
scalar Network.dyn_peer[31] 	lookupTimeSig:mean 	0.39574468085106
scalar Network.dyn_peer[31] 	lookupStabilitySig:mean 	0.77964610212767
scalar Network.dyn_peer[31] 	lookupHopsSig:mean 	3.1843971631206
