version 2
run Stability-48-20130524-20:22:31-3483
attr configname Stability
attr datetime 20130524-20:22:31
attr experiment Stability
attr inifile omnetpp.ini
attr iterationvars $0=1e2
attr iterationvars2 "$0=1e2, $repetition=8"
attr measurement $0=1e2
attr network Network
attr processid 3483
attr repetition 8
attr replication #8
attr resultdir results
attr runnumber 48
attr seedset 48

scalar Network.dyn_peer[0] 	lookupTimeSig:mean 	0.35986394557823
scalar Network.dyn_peer[0] 	lookupStabilitySig:mean 	0.84999697841704
scalar Network.dyn_peer[0] 	lookupHopsSig:mean 	2.8163265306122
scalar Network.dyn_peer[1] 	lookupTimeSig:mean 	0.37602339181287
scalar Network.dyn_peer[1] 	lookupStabilitySig:mean 	0.87760452585219
scalar Network.dyn_peer[1] 	lookupHopsSig:mean 	2.9473684210526
scalar Network.dyn_peer[2] 	lookupTimeSig:mean 	0.39488636363636
scalar Network.dyn_peer[2] 	lookupStabilitySig:mean 	0.86946171091404
scalar Network.dyn_peer[2] 	lookupHopsSig:mean 	3.1306818181818
scalar Network.dyn_peer[3] 	lookupTimeSig:mean 	0.35670731707317
scalar Network.dyn_peer[3] 	lookupStabilitySig:mean 	0.85791565540315
scalar Network.dyn_peer[3] 	lookupHopsSig:mean 	2.7621951219512
scalar Network.dyn_peer[4] 	lookupTimeSig:mean 	0.36470588235294
scalar Network.dyn_peer[4] 	lookupStabilitySig:mean 	0.85672506580458
scalar Network.dyn_peer[4] 	lookupHopsSig:mean 	2.8562091503268
scalar Network.dyn_peer[5] 	lookupTimeSig:mean 	0.30568181818182
scalar Network.dyn_peer[5] 	lookupStabilitySig:mean 	0.83552330034912
scalar Network.dyn_peer[5] 	lookupHopsSig:mean 	2.2386363636364
scalar Network.dyn_peer[6] 	lookupTimeSig:mean 	0.36184210526316
scalar Network.dyn_peer[6] 	lookupStabilitySig:mean 	0.85833918683133
scalar Network.dyn_peer[6] 	lookupHopsSig:mean 	2.8289473684211
scalar Network.dyn_peer[7] 	lookupTimeSig:mean 	0.35059523809524
scalar Network.dyn_peer[7] 	lookupStabilitySig:mean 	0.83898228933547
scalar Network.dyn_peer[7] 	lookupHopsSig:mean 	2.6964285714286
scalar Network.dyn_peer[8] 	lookupTimeSig:mean 	0.3180412371134
scalar Network.dyn_peer[8] 	lookupStabilitySig:mean 	0.83672560456679
scalar Network.dyn_peer[8] 	lookupHopsSig:mean 	2.3453608247423
scalar Network.dyn_peer[9] 	lookupTimeSig:mean 	0.35193370165746
scalar Network.dyn_peer[9] 	lookupStabilitySig:mean 	0.86436489438484
scalar Network.dyn_peer[9] 	lookupHopsSig:mean 	2.7016574585635
scalar Network.dyn_peer[10] 	lookupTimeSig:mean 	0.32905405405405
scalar Network.dyn_peer[10] 	lookupStabilitySig:mean 	0.82601768523455
scalar Network.dyn_peer[10] 	lookupHopsSig:mean 	2.5067567567568
scalar Network.dyn_peer[11] 	lookupTimeSig:mean 	0.36241134751773
scalar Network.dyn_peer[11] 	lookupStabilitySig:mean 	0.83160291538171
scalar Network.dyn_peer[11] 	lookupHopsSig:mean 	2.8510638297872
scalar Network.dyn_peer[12] 	lookupTimeSig:mean 	0.39248554913295
scalar Network.dyn_peer[12] 	lookupStabilitySig:mean 	0.86513704058278
scalar Network.dyn_peer[12] 	lookupHopsSig:mean 	3.1156069364162
scalar Network.dyn_peer[13] 	lookupTimeSig:mean 	0.37450980392157
scalar Network.dyn_peer[13] 	lookupStabilitySig:mean 	0.85944259635422
scalar Network.dyn_peer[13] 	lookupHopsSig:mean 	2.9542483660131
scalar Network.dyn_peer[14] 	lookupTimeSig:mean 	0.36412213740458
scalar Network.dyn_peer[14] 	lookupStabilitySig:mean 	0.8545362412048
scalar Network.dyn_peer[14] 	lookupHopsSig:mean 	2.8854961832061
scalar Network.dyn_peer[15] 	lookupTimeSig:mean 	0.32584269662921
scalar Network.dyn_peer[15] 	lookupStabilitySig:mean 	0.82397665102244
scalar Network.dyn_peer[15] 	lookupHopsSig:mean 	2.438202247191
scalar Network.dyn_peer[16] 	lookupTimeSig:mean 	0.32209944751381
scalar Network.dyn_peer[16] 	lookupStabilitySig:mean 	0.83341199843964
scalar Network.dyn_peer[16] 	lookupHopsSig:mean 	2.3977900552486
scalar Network.dyn_peer[17] 	lookupTimeSig:mean 	0.35723270440252
scalar Network.dyn_peer[17] 	lookupStabilitySig:mean 	0.86042898971845
scalar Network.dyn_peer[17] 	lookupHopsSig:mean 	2.7798742138365
scalar Network.dyn_peer[18] 	lookupTimeSig:mean 	0.36728395061728
scalar Network.dyn_peer[18] 	lookupStabilitySig:mean 	0.86285599507391
scalar Network.dyn_peer[18] 	lookupHopsSig:mean 	2.8703703703704
scalar Network.dyn_peer[19] 	lookupTimeSig:mean 	0.34807692307692
scalar Network.dyn_peer[19] 	lookupStabilitySig:mean 	0.84252926719208
scalar Network.dyn_peer[19] 	lookupHopsSig:mean 	2.6858974358974
scalar Network.dyn_peer[20] 	lookupTimeSig:mean 	0.36415094339623
scalar Network.dyn_peer[20] 	lookupStabilitySig:mean 	0.84868625570206
scalar Network.dyn_peer[20] 	lookupHopsSig:mean 	2.8427672955975
scalar Network.dyn_peer[21] 	lookupTimeSig:mean 	0.38531468531469
scalar Network.dyn_peer[21] 	lookupStabilitySig:mean 	0.86350106741009
scalar Network.dyn_peer[21] 	lookupHopsSig:mean 	3.0839160839161
scalar Network.dyn_peer[22] 	lookupTimeSig:mean 	0.39259259259259
scalar Network.dyn_peer[22] 	lookupStabilitySig:mean 	0.8722310077606
scalar Network.dyn_peer[22] 	lookupHopsSig:mean 	3.1296296296296
scalar Network.dyn_peer[23] 	lookupTimeSig:mean 	0.33355263157895
scalar Network.dyn_peer[23] 	lookupStabilitySig:mean 	0.85291645969999
scalar Network.dyn_peer[23] 	lookupHopsSig:mean 	2.5460526315789
scalar Network.dyn_peer[24] 	lookupTimeSig:mean 	0.35660377358491
scalar Network.dyn_peer[24] 	lookupStabilitySig:mean 	0.87879645601852
scalar Network.dyn_peer[24] 	lookupHopsSig:mean 	2.7672955974843
scalar Network.dyn_peer[25] 	lookupTimeSig:mean 	0.35253164556962
scalar Network.dyn_peer[25] 	lookupStabilitySig:mean 	0.8638715139602
scalar Network.dyn_peer[25] 	lookupHopsSig:mean 	2.7278481012658
scalar Network.dyn_peer[26] 	lookupTimeSig:mean 	0.3625
scalar Network.dyn_peer[26] 	lookupStabilitySig:mean 	0.87199960166196
scalar Network.dyn_peer[26] 	lookupHopsSig:mean 	2.8421052631579
scalar Network.dyn_peer[27] 	lookupTimeSig:mean 	0.38838709677419
scalar Network.dyn_peer[27] 	lookupStabilitySig:mean 	0.87058671345153
scalar Network.dyn_peer[27] 	lookupHopsSig:mean 	3.0903225806452
scalar Network.dyn_peer[28] 	lookupTimeSig:mean 	0.36571428571429
scalar Network.dyn_peer[28] 	lookupStabilitySig:mean 	0.88646514896836
scalar Network.dyn_peer[28] 	lookupHopsSig:mean 	2.84
scalar Network.dyn_peer[29] 	lookupTimeSig:mean 	0.34333333333333
scalar Network.dyn_peer[29] 	lookupStabilitySig:mean 	0.86369711482483
scalar Network.dyn_peer[29] 	lookupHopsSig:mean 	2.6111111111111
scalar Network.dyn_peer[30] 	lookupTimeSig:mean 	0.3820652173913
scalar Network.dyn_peer[30] 	lookupStabilitySig:mean 	0.87910649256335
scalar Network.dyn_peer[30] 	lookupHopsSig:mean 	2.9945652173913
scalar Network.dyn_peer[31] 	lookupTimeSig:mean 	0.32658959537572
scalar Network.dyn_peer[31] 	lookupStabilitySig:mean 	0.84919428197678
scalar Network.dyn_peer[31] 	lookupHopsSig:mean 	2.4508670520231
