version 2
run Stability-94-20130524-20:23:53-3483
attr configname Stability
attr datetime 20130524-20:23:53
attr experiment Stability
attr inifile omnetpp.ini
attr iterationvars $0=1e-3
attr iterationvars2 "$0=1e-3, $repetition=4"
attr measurement $0=1e-3
attr network Network
attr processid 3483
attr repetition 4
attr replication #4
attr resultdir results
attr runnumber 94
attr seedset 94

scalar Network.dyn_peer[0] 	lookupTimeSig:mean 	0.45084745762712
scalar Network.dyn_peer[0] 	lookupStabilitySig:mean 	0.71344497878799
scalar Network.dyn_peer[0] 	lookupHopsSig:mean 	3.7881355932203
scalar Network.dyn_peer[1] 	lookupTimeSig:mean 	0.41319444444444
scalar Network.dyn_peer[1] 	lookupStabilitySig:mean 	0.75403173416594
scalar Network.dyn_peer[1] 	lookupHopsSig:mean 	3.4027777777778
scalar Network.dyn_peer[2] 	lookupTimeSig:mean 	0.40425531914894
scalar Network.dyn_peer[2] 	lookupStabilitySig:mean 	0.76134145072272
scalar Network.dyn_peer[2] 	lookupHopsSig:mean 	3.2978723404255
scalar Network.dyn_peer[3] 	lookupTimeSig:mean 	0.40069444444444
scalar Network.dyn_peer[3] 	lookupStabilitySig:mean 	0.75350285357692
scalar Network.dyn_peer[3] 	lookupHopsSig:mean 	3.2430555555556
scalar Network.dyn_peer[4] 	lookupTimeSig:mean 	0.39765625
scalar Network.dyn_peer[4] 	lookupStabilitySig:mean 	0.75230648461729
scalar Network.dyn_peer[4] 	lookupHopsSig:mean 	3.2265625
scalar Network.dyn_peer[5] 	lookupTimeSig:mean 	0.39606299212598
scalar Network.dyn_peer[5] 	lookupStabilitySig:mean 	0.73285877974484
scalar Network.dyn_peer[5] 	lookupHopsSig:mean 	3.244094488189
scalar Network.dyn_peer[6] 	lookupTimeSig:mean 	0.41496062992126
scalar Network.dyn_peer[6] 	lookupStabilitySig:mean 	0.72865964112965
scalar Network.dyn_peer[6] 	lookupHopsSig:mean 	3.4330708661417
scalar Network.dyn_peer[7] 	lookupTimeSig:mean 	0.41512605042017
scalar Network.dyn_peer[7] 	lookupStabilitySig:mean 	0.73269492223421
scalar Network.dyn_peer[7] 	lookupHopsSig:mean 	3.4201680672269
scalar Network.dyn_peer[8] 	lookupTimeSig:mean 	0.40444444444444
scalar Network.dyn_peer[8] 	lookupStabilitySig:mean 	0.74925436388563
scalar Network.dyn_peer[8] 	lookupHopsSig:mean 	3.2888888888889
scalar Network.dyn_peer[9] 	lookupTimeSig:mean 	0.26280991735537
scalar Network.dyn_peer[9] 	lookupStabilitySig:mean 	0.73863636363636
scalar Network.dyn_peer[9] 	lookupHopsSig:mean 	2.0909090909091
scalar Network.dyn_peer[10] 	lookupTimeSig:mean 	0.44202898550725
scalar Network.dyn_peer[10] 	lookupStabilitySig:mean 	0.74699139643622
scalar Network.dyn_peer[10] 	lookupHopsSig:mean 	3.6739130434783
scalar Network.dyn_peer[11] 	lookupTimeSig:mean 	0.42761194029851
scalar Network.dyn_peer[11] 	lookupStabilitySig:mean 	0.74147059921342
scalar Network.dyn_peer[11] 	lookupHopsSig:mean 	3.5223880597015
scalar Network.dyn_peer[12] 	lookupTimeSig:mean 	0.44210526315789
scalar Network.dyn_peer[12] 	lookupStabilitySig:mean 	0.73817007103585
scalar Network.dyn_peer[12] 	lookupHopsSig:mean 	3.6616541353383
scalar Network.dyn_peer[13] 	lookupTimeSig:mean 	0.3936170212766
scalar Network.dyn_peer[13] 	lookupStabilitySig:mean 	0.75682483287198
scalar Network.dyn_peer[13] 	lookupHopsSig:mean 	3.2127659574468
scalar Network.dyn_peer[14] 	lookupTimeSig:mean 	0.39779411764706
scalar Network.dyn_peer[14] 	lookupStabilitySig:mean 	0.74620611028855
scalar Network.dyn_peer[14] 	lookupHopsSig:mean 	3.2279411764706
scalar Network.dyn_peer[15] 	lookupTimeSig:mean 	0.4
scalar Network.dyn_peer[15] 	lookupStabilitySig:mean 	0.7366213109671
scalar Network.dyn_peer[15] 	lookupHopsSig:mean 	3.2982456140351
scalar Network.dyn_peer[16] 	lookupTimeSig:mean 	0.41310344827586
scalar Network.dyn_peer[16] 	lookupStabilitySig:mean 	0.75713622142272
scalar Network.dyn_peer[16] 	lookupHopsSig:mean 	3.3931034482759
scalar Network.dyn_peer[17] 	lookupTimeSig:mean 	0.43265306122449
scalar Network.dyn_peer[17] 	lookupStabilitySig:mean 	0.76281521955923
scalar Network.dyn_peer[17] 	lookupHopsSig:mean 	3.5578231292517
scalar Network.dyn_peer[18] 	lookupTimeSig:mean 	0.39679487179487
scalar Network.dyn_peer[18] 	lookupStabilitySig:mean 	0.76519284248113
scalar Network.dyn_peer[18] 	lookupHopsSig:mean 	3.2179487179487
scalar Network.dyn_peer[19] 	lookupTimeSig:mean 	0.42937062937063
scalar Network.dyn_peer[19] 	lookupStabilitySig:mean 	0.75008276000723
scalar Network.dyn_peer[19] 	lookupHopsSig:mean 	3.5384615384615
scalar Network.dyn_peer[20] 	lookupTimeSig:mean 	0.39558823529412
scalar Network.dyn_peer[20] 	lookupStabilitySig:mean 	0.75343558982508
scalar Network.dyn_peer[20] 	lookupHopsSig:mean 	3.1985294117647
scalar Network.dyn_peer[21] 	lookupTimeSig:mean 	0.43829787234043
scalar Network.dyn_peer[21] 	lookupStabilitySig:mean 	0.7455649247644
scalar Network.dyn_peer[21] 	lookupHopsSig:mean 	3.6382978723404
scalar Network.dyn_peer[22] 	lookupTimeSig:mean 	0.41603053435115
scalar Network.dyn_peer[22] 	lookupStabilitySig:mean 	0.73640495690851
scalar Network.dyn_peer[22] 	lookupHopsSig:mean 	3.4427480916031
scalar Network.dyn_peer[23] 	lookupTimeSig:mean 	0.3801652892562
scalar Network.dyn_peer[23] 	lookupStabilitySig:mean 	0.74026868329191
scalar Network.dyn_peer[23] 	lookupHopsSig:mean 	3.1074380165289
scalar Network.dyn_peer[24] 	lookupTimeSig:mean 	0.4410447761194
scalar Network.dyn_peer[24] 	lookupStabilitySig:mean 	0.73865753370546
scalar Network.dyn_peer[24] 	lookupHopsSig:mean 	3.6865671641791
scalar Network.dyn_peer[25] 	lookupTimeSig:mean 	0.4296875
scalar Network.dyn_peer[25] 	lookupStabilitySig:mean 	0.72997156334168
scalar Network.dyn_peer[25] 	lookupHopsSig:mean 	3.578125
scalar Network.dyn_peer[26] 	lookupTimeSig:mean 	0.375
scalar Network.dyn_peer[26] 	lookupStabilitySig:mean 	0.74682404669875
scalar Network.dyn_peer[26] 	lookupHopsSig:mean 	3.015625
scalar Network.dyn_peer[27] 	lookupTimeSig:mean 	0.408
scalar Network.dyn_peer[27] 	lookupStabilitySig:mean 	0.76232887830585
scalar Network.dyn_peer[27] 	lookupHopsSig:mean 	3.32
scalar Network.dyn_peer[28] 	lookupTimeSig:mean 	0.41678321678322
scalar Network.dyn_peer[28] 	lookupStabilitySig:mean 	0.75955697637494
scalar Network.dyn_peer[28] 	lookupHopsSig:mean 	3.4055944055944
scalar Network.dyn_peer[29] 	lookupTimeSig:mean 	0.43557046979866
scalar Network.dyn_peer[29] 	lookupStabilitySig:mean 	0.75023550395198
scalar Network.dyn_peer[29] 	lookupHopsSig:mean 	3.5973154362416
scalar Network.dyn_peer[30] 	lookupTimeSig:mean 	0.41328125
scalar Network.dyn_peer[30] 	lookupStabilitySig:mean 	0.7482809839421
scalar Network.dyn_peer[30] 	lookupHopsSig:mean 	3.390625
scalar Network.dyn_peer[31] 	lookupTimeSig:mean 	0.44878048780488
scalar Network.dyn_peer[31] 	lookupStabilitySig:mean 	0.72230762346246
scalar Network.dyn_peer[31] 	lookupHopsSig:mean 	3.7967479674797
