version 2
run Stability-92-20130524-20:23:50-3483
attr configname Stability
attr datetime 20130524-20:23:50
attr experiment Stability
attr inifile omnetpp.ini
attr iterationvars $0=1e-3
attr iterationvars2 "$0=1e-3, $repetition=2"
attr measurement $0=1e-3
attr network Network
attr processid 3483
attr repetition 2
attr replication #2
attr resultdir results
attr runnumber 92
attr seedset 92

scalar Network.dyn_peer[0] 	lookupTimeSig:mean 	0.42847222222222
scalar Network.dyn_peer[0] 	lookupStabilitySig:mean 	0.768036864685
scalar Network.dyn_peer[0] 	lookupHopsSig:mean 	3.5277777777778
scalar Network.dyn_peer[1] 	lookupTimeSig:mean 	0.39655172413793
scalar Network.dyn_peer[1] 	lookupStabilitySig:mean 	0.77726976432163
scalar Network.dyn_peer[1] 	lookupHopsSig:mean 	3.1862068965517
scalar Network.dyn_peer[2] 	lookupTimeSig:mean 	0.3804347826087
scalar Network.dyn_peer[2] 	lookupStabilitySig:mean 	0.76788056737649
scalar Network.dyn_peer[2] 	lookupHopsSig:mean 	3.0579710144928
scalar Network.dyn_peer[3] 	lookupTimeSig:mean 	0.4078431372549
scalar Network.dyn_peer[3] 	lookupStabilitySig:mean 	0.77250714088772
scalar Network.dyn_peer[3] 	lookupHopsSig:mean 	3.3071895424837
scalar Network.dyn_peer[4] 	lookupTimeSig:mean 	0.24107142857143
scalar Network.dyn_peer[4] 	lookupStabilitySig:mean 	0.76339285714286
scalar Network.dyn_peer[4] 	lookupHopsSig:mean 	1.8928571428571
scalar Network.dyn_peer[5] 	lookupTimeSig:mean 	0.38014705882353
scalar Network.dyn_peer[5] 	lookupStabilitySig:mean 	0.76100595537847
scalar Network.dyn_peer[5] 	lookupHopsSig:mean 	3.0808823529412
scalar Network.dyn_peer[6] 	lookupTimeSig:mean 	0.39154929577465
scalar Network.dyn_peer[6] 	lookupStabilitySig:mean 	0.77091722791149
scalar Network.dyn_peer[6] 	lookupHopsSig:mean 	3.169014084507
scalar Network.dyn_peer[7] 	lookupTimeSig:mean 	0.38843537414966
scalar Network.dyn_peer[7] 	lookupStabilitySig:mean 	0.77170995980197
scalar Network.dyn_peer[7] 	lookupHopsSig:mean 	3.1224489795918
scalar Network.dyn_peer[8] 	lookupTimeSig:mean 	0.38769230769231
scalar Network.dyn_peer[8] 	lookupStabilitySig:mean 	0.76410287105693
scalar Network.dyn_peer[8] 	lookupHopsSig:mean 	3.1384615384615
scalar Network.dyn_peer[9] 	lookupTimeSig:mean 	0.41111111111111
scalar Network.dyn_peer[9] 	lookupStabilitySig:mean 	0.72495825547311
scalar Network.dyn_peer[9] 	lookupHopsSig:mean 	3.4273504273504
scalar Network.dyn_peer[10] 	lookupTimeSig:mean 	0.4198347107438
scalar Network.dyn_peer[10] 	lookupStabilitySig:mean 	0.73334047496935
scalar Network.dyn_peer[10] 	lookupHopsSig:mean 	3.495867768595
scalar Network.dyn_peer[11] 	lookupTimeSig:mean 	0.4
scalar Network.dyn_peer[11] 	lookupStabilitySig:mean 	0.74660811629442
scalar Network.dyn_peer[11] 	lookupHopsSig:mean 	3.2698412698413
scalar Network.dyn_peer[12] 	lookupTimeSig:mean 	0.40178571428571
scalar Network.dyn_peer[12] 	lookupStabilitySig:mean 	0.72720608085261
scalar Network.dyn_peer[12] 	lookupHopsSig:mean 	3.3392857142857
scalar Network.dyn_peer[13] 	lookupTimeSig:mean 	0.42317880794702
scalar Network.dyn_peer[13] 	lookupStabilitySig:mean 	0.76277298187923
scalar Network.dyn_peer[13] 	lookupHopsSig:mean 	3.4834437086093
scalar Network.dyn_peer[14] 	lookupTimeSig:mean 	0.36923076923077
scalar Network.dyn_peer[14] 	lookupStabilitySig:mean 	0.76891482721728
scalar Network.dyn_peer[14] 	lookupHopsSig:mean 	2.9461538461538
scalar Network.dyn_peer[15] 	lookupTimeSig:mean 	0.40344827586207
scalar Network.dyn_peer[15] 	lookupStabilitySig:mean 	0.76737646572292
scalar Network.dyn_peer[15] 	lookupHopsSig:mean 	3.2896551724138
scalar Network.dyn_peer[16] 	lookupTimeSig:mean 	0.40201342281879
scalar Network.dyn_peer[16] 	lookupStabilitySig:mean 	0.76695103569569
scalar Network.dyn_peer[16] 	lookupHopsSig:mean 	3.261744966443
scalar Network.dyn_peer[17] 	lookupTimeSig:mean 	0.39512195121951
scalar Network.dyn_peer[17] 	lookupStabilitySig:mean 	0.74941526368503
scalar Network.dyn_peer[17] 	lookupHopsSig:mean 	3.2276422764228
scalar Network.dyn_peer[18] 	lookupTimeSig:mean 	0.38129496402878
scalar Network.dyn_peer[18] 	lookupStabilitySig:mean 	0.77100065680181
scalar Network.dyn_peer[18] 	lookupHopsSig:mean 	3.0575539568345
scalar Network.dyn_peer[19] 	lookupTimeSig:mean 	0.38083333333333
scalar Network.dyn_peer[19] 	lookupStabilitySig:mean 	0.75274777643693
scalar Network.dyn_peer[19] 	lookupHopsSig:mean 	3.0916666666667
scalar Network.dyn_peer[20] 	lookupTimeSig:mean 	0.3982905982906
scalar Network.dyn_peer[20] 	lookupStabilitySig:mean 	0.74268126968517
scalar Network.dyn_peer[20] 	lookupHopsSig:mean 	3.2820512820513
scalar Network.dyn_peer[21] 	lookupTimeSig:mean 	0.38914728682171
scalar Network.dyn_peer[21] 	lookupStabilitySig:mean 	0.76082717387598
scalar Network.dyn_peer[21] 	lookupHopsSig:mean 	3.1782945736434
scalar Network.dyn_peer[22] 	lookupTimeSig:mean 	0.38978102189781
scalar Network.dyn_peer[22] 	lookupStabilitySig:mean 	0.76188133066914
scalar Network.dyn_peer[22] 	lookupHopsSig:mean 	3.1386861313869
scalar Network.dyn_peer[23] 	lookupTimeSig:mean 	0.396875
scalar Network.dyn_peer[23] 	lookupStabilitySig:mean 	0.75558037593146
scalar Network.dyn_peer[23] 	lookupHopsSig:mean 	3.2421875
scalar Network.dyn_peer[24] 	lookupTimeSig:mean 	0.38741258741259
scalar Network.dyn_peer[24] 	lookupStabilitySig:mean 	0.77309389422824
scalar Network.dyn_peer[24] 	lookupHopsSig:mean 	3.1188811188811
scalar Network.dyn_peer[25] 	lookupTimeSig:mean 	0.42708333333333
scalar Network.dyn_peer[25] 	lookupStabilitySig:mean 	0.76208761219297
scalar Network.dyn_peer[25] 	lookupHopsSig:mean 	3.5138888888889
scalar Network.dyn_peer[26] 	lookupTimeSig:mean 	0.4
scalar Network.dyn_peer[26] 	lookupStabilitySig:mean 	0.7613648391606
scalar Network.dyn_peer[26] 	lookupHopsSig:mean 	3.2519083969466
scalar Network.dyn_peer[27] 	lookupTimeSig:mean 	0.38551724137931
scalar Network.dyn_peer[27] 	lookupStabilitySig:mean 	0.77711250550788
scalar Network.dyn_peer[27] 	lookupHopsSig:mean 	3.0965517241379
scalar Network.dyn_peer[28] 	lookupTimeSig:mean 	0.39765625
scalar Network.dyn_peer[28] 	lookupStabilitySig:mean 	0.75000739948882
scalar Network.dyn_peer[28] 	lookupHopsSig:mean 	3.2421875
scalar Network.dyn_peer[29] 	lookupTimeSig:mean 	0.4488
scalar Network.dyn_peer[29] 	lookupStabilitySig:mean 	0.72813713602722
scalar Network.dyn_peer[29] 	lookupHopsSig:mean 	3.776
scalar Network.dyn_peer[30] 	lookupTimeSig:mean 	0.41884057971014
scalar Network.dyn_peer[30] 	lookupStabilitySig:mean 	0.75858704903689
scalar Network.dyn_peer[30] 	lookupHopsSig:mean 	3.4202898550725
scalar Network.dyn_peer[31] 	lookupTimeSig:mean 	0.39448818897638
scalar Network.dyn_peer[31] 	lookupStabilitySig:mean 	0.75833290409091
scalar Network.dyn_peer[31] 	lookupHopsSig:mean 	3.2047244094488
