version 2
run Stability-54-20130524-20:22:42-3483
attr configname Stability
attr datetime 20130524-20:22:42
attr experiment Stability
attr inifile omnetpp.ini
attr iterationvars $0=1e1
attr iterationvars2 "$0=1e1, $repetition=4"
attr measurement $0=1e1
attr network Network
attr processid 3483
attr repetition 4
attr replication #4
attr resultdir results
attr runnumber 54
attr seedset 54

scalar Network.dyn_peer[0] 	lookupTimeSig:mean 	0.44090909090909
scalar Network.dyn_peer[0] 	lookupStabilitySig:mean 	0.75443454590541
scalar Network.dyn_peer[0] 	lookupHopsSig:mean 	3.6515151515152
scalar Network.dyn_peer[1] 	lookupTimeSig:mean 	0.39469696969697
scalar Network.dyn_peer[1] 	lookupStabilitySig:mean 	0.76619050963641
scalar Network.dyn_peer[1] 	lookupHopsSig:mean 	3.1893939393939
scalar Network.dyn_peer[2] 	lookupTimeSig:mean 	0.4075
scalar Network.dyn_peer[2] 	lookupStabilitySig:mean 	0.75345264378314
scalar Network.dyn_peer[2] 	lookupHopsSig:mean 	3.3416666666667
scalar Network.dyn_peer[3] 	lookupTimeSig:mean 	0.35694444444444
scalar Network.dyn_peer[3] 	lookupStabilitySig:mean 	0.78977567806012
scalar Network.dyn_peer[3] 	lookupHopsSig:mean 	2.7916666666667
scalar Network.dyn_peer[4] 	lookupTimeSig:mean 	0.4
scalar Network.dyn_peer[4] 	lookupStabilitySig:mean 	0.77745262036721
scalar Network.dyn_peer[4] 	lookupHopsSig:mean 	3.231884057971
scalar Network.dyn_peer[5] 	lookupTimeSig:mean 	0.38992805755396
scalar Network.dyn_peer[5] 	lookupStabilitySig:mean 	0.76940961352302
scalar Network.dyn_peer[5] 	lookupHopsSig:mean 	3.1294964028777
scalar Network.dyn_peer[6] 	lookupTimeSig:mean 	0.40217391304348
scalar Network.dyn_peer[6] 	lookupStabilitySig:mean 	0.77954087923348
scalar Network.dyn_peer[6] 	lookupHopsSig:mean 	3.2536231884058
scalar Network.dyn_peer[7] 	lookupTimeSig:mean 	0.41333333333333
scalar Network.dyn_peer[7] 	lookupStabilitySig:mean 	0.78180507189284
scalar Network.dyn_peer[7] 	lookupHopsSig:mean 	3.3466666666667
scalar Network.dyn_peer[8] 	lookupTimeSig:mean 	0.42361111111111
scalar Network.dyn_peer[8] 	lookupStabilitySig:mean 	0.77350514234665
scalar Network.dyn_peer[8] 	lookupHopsSig:mean 	3.4583333333333
scalar Network.dyn_peer[9] 	lookupTimeSig:mean 	0.35217391304348
scalar Network.dyn_peer[9] 	lookupStabilitySig:mean 	0.7861305181126
scalar Network.dyn_peer[9] 	lookupHopsSig:mean 	2.7536231884058
scalar Network.dyn_peer[10] 	lookupTimeSig:mean 	0.39285714285714
scalar Network.dyn_peer[10] 	lookupStabilitySig:mean 	0.76454614392585
scalar Network.dyn_peer[10] 	lookupHopsSig:mean 	3.1825396825397
scalar Network.dyn_peer[11] 	lookupTimeSig:mean 	0.40144927536232
scalar Network.dyn_peer[11] 	lookupStabilitySig:mean 	0.77800669569684
scalar Network.dyn_peer[11] 	lookupHopsSig:mean 	3.2463768115942
scalar Network.dyn_peer[12] 	lookupTimeSig:mean 	0.38680555555556
scalar Network.dyn_peer[12] 	lookupStabilitySig:mean 	0.78055172249313
scalar Network.dyn_peer[12] 	lookupHopsSig:mean 	3.0902777777778
scalar Network.dyn_peer[13] 	lookupTimeSig:mean 	0.4
scalar Network.dyn_peer[13] 	lookupStabilitySig:mean 	0.7768919324695
scalar Network.dyn_peer[13] 	lookupHopsSig:mean 	3.2206896551724
scalar Network.dyn_peer[14] 	lookupTimeSig:mean 	0.38513513513514
scalar Network.dyn_peer[14] 	lookupStabilitySig:mean 	0.78968831309042
scalar Network.dyn_peer[14] 	lookupHopsSig:mean 	3.0675675675676
scalar Network.dyn_peer[15] 	lookupTimeSig:mean 	0.44473684210526
scalar Network.dyn_peer[15] 	lookupStabilitySig:mean 	0.77422311355507
scalar Network.dyn_peer[15] 	lookupHopsSig:mean 	3.6578947368421
scalar Network.dyn_peer[16] 	lookupTimeSig:mean 	0.41643835616438
scalar Network.dyn_peer[16] 	lookupStabilitySig:mean 	0.77627715014227
scalar Network.dyn_peer[16] 	lookupHopsSig:mean 	3.3835616438356
scalar Network.dyn_peer[17] 	lookupTimeSig:mean 	0.41027397260274
scalar Network.dyn_peer[17] 	lookupStabilitySig:mean 	0.77929648592405
scalar Network.dyn_peer[17] 	lookupHopsSig:mean 	3.3219178082192
scalar Network.dyn_peer[18] 	lookupTimeSig:mean 	0.36567164179104
scalar Network.dyn_peer[18] 	lookupStabilitySig:mean 	0.7855105874921
scalar Network.dyn_peer[18] 	lookupHopsSig:mean 	2.8955223880597
scalar Network.dyn_peer[19] 	lookupTimeSig:mean 	0.39140625
scalar Network.dyn_peer[19] 	lookupStabilitySig:mean 	0.76272855169373
scalar Network.dyn_peer[19] 	lookupHopsSig:mean 	3.1640625
scalar Network.dyn_peer[20] 	lookupTimeSig:mean 	0.38378378378378
scalar Network.dyn_peer[20] 	lookupStabilitySig:mean 	0.789674010455
scalar Network.dyn_peer[20] 	lookupHopsSig:mean 	3.0540540540541
scalar Network.dyn_peer[21] 	lookupTimeSig:mean 	0.40144927536232
scalar Network.dyn_peer[21] 	lookupStabilitySig:mean 	0.78071593123394
scalar Network.dyn_peer[21] 	lookupHopsSig:mean 	3.2463768115942
scalar Network.dyn_peer[22] 	lookupTimeSig:mean 	0.36666666666667
scalar Network.dyn_peer[22] 	lookupStabilitySig:mean 	0.80496580579123
scalar Network.dyn_peer[22] 	lookupHopsSig:mean 	2.8641975308642
scalar Network.dyn_peer[23] 	lookupTimeSig:mean 	0.4015873015873
scalar Network.dyn_peer[23] 	lookupStabilitySig:mean 	0.75850801666578
scalar Network.dyn_peer[23] 	lookupHopsSig:mean 	3.2698412698413
scalar Network.dyn_peer[24] 	lookupTimeSig:mean 	0.41571428571429
scalar Network.dyn_peer[24] 	lookupStabilitySig:mean 	0.77466459862356
scalar Network.dyn_peer[24] 	lookupHopsSig:mean 	3.3857142857143
scalar Network.dyn_peer[25] 	lookupTimeSig:mean 	0.42166666666667
scalar Network.dyn_peer[25] 	lookupStabilitySig:mean 	0.73824059440133
scalar Network.dyn_peer[25] 	lookupHopsSig:mean 	3.4833333333333
scalar Network.dyn_peer[26] 	lookupTimeSig:mean 	0.41268656716418
scalar Network.dyn_peer[26] 	lookupStabilitySig:mean 	0.76377641880857
scalar Network.dyn_peer[26] 	lookupHopsSig:mean 	3.365671641791
scalar Network.dyn_peer[27] 	lookupTimeSig:mean 	0.40808823529412
scalar Network.dyn_peer[27] 	lookupStabilitySig:mean 	0.76833731277079
scalar Network.dyn_peer[27] 	lookupHopsSig:mean 	3.3161764705882
scalar Network.dyn_peer[28] 	lookupTimeSig:mean 	0.42191780821918
scalar Network.dyn_peer[28] 	lookupStabilitySig:mean 	0.78072378519055
scalar Network.dyn_peer[28] 	lookupHopsSig:mean 	3.4383561643836
scalar Network.dyn_peer[29] 	lookupTimeSig:mean 	0.41491228070175
scalar Network.dyn_peer[29] 	lookupStabilitySig:mean 	0.73770979559866
scalar Network.dyn_peer[29] 	lookupHopsSig:mean 	3.4298245614035
scalar Network.dyn_peer[30] 	lookupTimeSig:mean 	0.38562091503268
scalar Network.dyn_peer[30] 	lookupStabilitySig:mean 	0.79302767221055
scalar Network.dyn_peer[30] 	lookupHopsSig:mean 	3.0653594771242
scalar Network.dyn_peer[31] 	lookupTimeSig:mean 	0.43251533742331
scalar Network.dyn_peer[31] 	lookupStabilitySig:mean 	0.79670831699359
scalar Network.dyn_peer[31] 	lookupHopsSig:mean 	3.521472392638
