version 2
run Stability-84-20130524-20:23:35-3483
attr configname Stability
attr datetime 20130524-20:23:35
attr experiment Stability
attr inifile omnetpp.ini
attr iterationvars $0=1e-2
attr iterationvars2 "$0=1e-2, $repetition=4"
attr measurement $0=1e-2
attr network Network
attr processid 3483
attr repetition 4
attr replication #4
attr resultdir results
attr runnumber 84
attr seedset 84

scalar Network.dyn_peer[0] 	lookupTimeSig:mean 	0.41475409836066
scalar Network.dyn_peer[0] 	lookupStabilitySig:mean 	0.71683743458669
scalar Network.dyn_peer[0] 	lookupHopsSig:mean 	3.5
scalar Network.dyn_peer[1] 	lookupTimeSig:mean 	0.27377049180328
scalar Network.dyn_peer[1] 	lookupStabilitySig:mean 	0.743920763069
scalar Network.dyn_peer[1] 	lookupHopsSig:mean 	2.1885245901639
scalar Network.dyn_peer[2] 	lookupTimeSig:mean 	0.39609375
scalar Network.dyn_peer[2] 	lookupStabilitySig:mean 	0.73757189436583
scalar Network.dyn_peer[2] 	lookupHopsSig:mean 	3.3125
scalar Network.dyn_peer[3] 	lookupTimeSig:mean 	0.37014925373134
scalar Network.dyn_peer[3] 	lookupStabilitySig:mean 	0.75870094655443
scalar Network.dyn_peer[3] 	lookupHopsSig:mean 	2.9850746268657
scalar Network.dyn_peer[4] 	lookupTimeSig:mean 	0.41185185185185
scalar Network.dyn_peer[4] 	lookupStabilitySig:mean 	0.75894942380212
scalar Network.dyn_peer[4] 	lookupHopsSig:mean 	3.3703703703704
scalar Network.dyn_peer[5] 	lookupTimeSig:mean 	0.41136363636364
scalar Network.dyn_peer[5] 	lookupStabilitySig:mean 	0.73982293417
scalar Network.dyn_peer[5] 	lookupHopsSig:mean 	3.4242424242424
scalar Network.dyn_peer[6] 	lookupTimeSig:mean 	0.4008547008547
scalar Network.dyn_peer[6] 	lookupStabilitySig:mean 	0.71964791775323
scalar Network.dyn_peer[6] 	lookupHopsSig:mean 	3.3675213675214
scalar Network.dyn_peer[7] 	lookupTimeSig:mean 	0.40162601626016
scalar Network.dyn_peer[7] 	lookupStabilitySig:mean 	0.73018545878491
scalar Network.dyn_peer[7] 	lookupHopsSig:mean 	3.3414634146341
scalar Network.dyn_peer[8] 	lookupTimeSig:mean 	0.41068702290076
scalar Network.dyn_peer[8] 	lookupStabilitySig:mean 	0.7343320853667
scalar Network.dyn_peer[8] 	lookupHopsSig:mean 	3.4274809160305
scalar Network.dyn_peer[9] 	lookupTimeSig:mean 	0.3865671641791
scalar Network.dyn_peer[9] 	lookupStabilitySig:mean 	0.75700362406171
scalar Network.dyn_peer[9] 	lookupHopsSig:mean 	3.134328358209
scalar Network.dyn_peer[10] 	lookupTimeSig:mean 	0.38650793650794
scalar Network.dyn_peer[10] 	lookupStabilitySig:mean 	0.73721633943182
scalar Network.dyn_peer[10] 	lookupHopsSig:mean 	3.1984126984127
scalar Network.dyn_peer[11] 	lookupTimeSig:mean 	0.40408163265306
scalar Network.dyn_peer[11] 	lookupStabilitySig:mean 	0.75228121937538
scalar Network.dyn_peer[11] 	lookupHopsSig:mean 	3.3333333333333
scalar Network.dyn_peer[12] 	lookupTimeSig:mean 	0.40084033613445
scalar Network.dyn_peer[12] 	lookupStabilitySig:mean 	0.72360759328644
scalar Network.dyn_peer[12] 	lookupHopsSig:mean 	3.3613445378151
scalar Network.dyn_peer[13] 	lookupTimeSig:mean 	0.38776978417266
scalar Network.dyn_peer[13] 	lookupStabilitySig:mean 	0.75863532596033
scalar Network.dyn_peer[13] 	lookupHopsSig:mean 	3.136690647482
scalar Network.dyn_peer[14] 	lookupTimeSig:mean 	0.41111111111111
scalar Network.dyn_peer[14] 	lookupStabilitySig:mean 	0.7169608832934
scalar Network.dyn_peer[14] 	lookupHopsSig:mean 	3.4615384615385
scalar Network.dyn_peer[15] 	lookupTimeSig:mean 	0.39830508474576
scalar Network.dyn_peer[15] 	lookupStabilitySig:mean 	0.72989674482368
scalar Network.dyn_peer[15] 	lookupHopsSig:mean 	3.3389830508475
scalar Network.dyn_peer[16] 	lookupTimeSig:mean 	0.39112903225806
scalar Network.dyn_peer[16] 	lookupStabilitySig:mean 	0.72899338855378
scalar Network.dyn_peer[16] 	lookupHopsSig:mean 	3.25
scalar Network.dyn_peer[17] 	lookupTimeSig:mean 	0.42627118644068
scalar Network.dyn_peer[17] 	lookupStabilitySig:mean 	0.71269086034874
scalar Network.dyn_peer[17] 	lookupHopsSig:mean 	3.6186440677966
scalar Network.dyn_peer[18] 	lookupTimeSig:mean 	0.26746031746032
scalar Network.dyn_peer[18] 	lookupStabilitySig:mean 	0.75857984452021
scalar Network.dyn_peer[18] 	lookupHopsSig:mean 	2.0714285714286
scalar Network.dyn_peer[19] 	lookupTimeSig:mean 	0.40973451327434
scalar Network.dyn_peer[19] 	lookupStabilitySig:mean 	0.70488721504807
scalar Network.dyn_peer[19] 	lookupHopsSig:mean 	3.4867256637168
scalar Network.dyn_peer[20] 	lookupTimeSig:mean 	0.39398496240602
scalar Network.dyn_peer[20] 	lookupStabilitySig:mean 	0.75286275911656
scalar Network.dyn_peer[20] 	lookupHopsSig:mean 	3.2706766917293
scalar Network.dyn_peer[21] 	lookupTimeSig:mean 	0.28188976377953
scalar Network.dyn_peer[21] 	lookupStabilitySig:mean 	0.73949733376503
scalar Network.dyn_peer[21] 	lookupHopsSig:mean 	2.251968503937
scalar Network.dyn_peer[22] 	lookupTimeSig:mean 	0.40234375
scalar Network.dyn_peer[22] 	lookupStabilitySig:mean 	0.74483288548072
scalar Network.dyn_peer[22] 	lookupHopsSig:mean 	3.328125
scalar Network.dyn_peer[23] 	lookupTimeSig:mean 	0.41007751937984
scalar Network.dyn_peer[23] 	lookupStabilitySig:mean 	0.748005404332
scalar Network.dyn_peer[23] 	lookupHopsSig:mean 	3.4186046511628
scalar Network.dyn_peer[24] 	lookupTimeSig:mean 	0.395
scalar Network.dyn_peer[24] 	lookupStabilitySig:mean 	0.73129500641177
scalar Network.dyn_peer[24] 	lookupHopsSig:mean 	3.3083333333333
scalar Network.dyn_peer[25] 	lookupTimeSig:mean 	0.28813559322034
scalar Network.dyn_peer[25] 	lookupStabilitySig:mean 	0.72895908014754
scalar Network.dyn_peer[25] 	lookupHopsSig:mean 	2.3220338983051
scalar Network.dyn_peer[26] 	lookupTimeSig:mean 	0.37966101694915
scalar Network.dyn_peer[26] 	lookupStabilitySig:mean 	0.72937344855992
scalar Network.dyn_peer[26] 	lookupHopsSig:mean 	3.1694915254237
scalar Network.dyn_peer[27] 	lookupTimeSig:mean 	0.42127659574468
scalar Network.dyn_peer[27] 	lookupStabilitySig:mean 	0.75025805693569
scalar Network.dyn_peer[27] 	lookupHopsSig:mean 	3.4964539007092
scalar Network.dyn_peer[28] 	lookupTimeSig:mean 	0.41779661016949
scalar Network.dyn_peer[28] 	lookupStabilitySig:mean 	0.71780583530791
scalar Network.dyn_peer[28] 	lookupHopsSig:mean 	3.5254237288136
scalar Network.dyn_peer[29] 	lookupTimeSig:mean 	0.39863945578231
scalar Network.dyn_peer[29] 	lookupStabilitySig:mean 	0.75493197615708
scalar Network.dyn_peer[29] 	lookupHopsSig:mean 	3.2993197278912
scalar Network.dyn_peer[30] 	lookupTimeSig:mean 	0.41544715447154
scalar Network.dyn_peer[30] 	lookupStabilitySig:mean 	0.73690569269039
scalar Network.dyn_peer[30] 	lookupHopsSig:mean 	3.4634146341463
scalar Network.dyn_peer[31] 	lookupTimeSig:mean 	0.41518987341772
scalar Network.dyn_peer[31] 	lookupStabilitySig:mean 	0.76206283180538
scalar Network.dyn_peer[31] 	lookupHopsSig:mean 	3.4367088607595
