version 2
run Stability-30-20130524-20:21:50-3483
attr configname Stability
attr datetime 20130524-20:21:50
attr experiment Stability
attr inifile omnetpp.ini
attr iterationvars $0=1e3
attr iterationvars2 "$0=1e3, $repetition=0"
attr measurement $0=1e3
attr network Network
attr processid 3483
attr repetition 0
attr replication #0
attr resultdir results
attr runnumber 30
attr seedset 30

scalar Network.dyn_peer[0] 	lookupTimeSig:mean 	0.31333333333333
scalar Network.dyn_peer[0] 	lookupStabilitySig:mean 	0.89426930338765
scalar Network.dyn_peer[0] 	lookupHopsSig:mean 	2.2666666666667
scalar Network.dyn_peer[1] 	lookupTimeSig:mean 	0.32511013215859
scalar Network.dyn_peer[1] 	lookupStabilitySig:mean 	0.88506159354576
scalar Network.dyn_peer[1] 	lookupHopsSig:mean 	2.3964757709251
scalar Network.dyn_peer[2] 	lookupTimeSig:mean 	0.31225296442688
scalar Network.dyn_peer[2] 	lookupStabilitySig:mean 	0.8890399946187
scalar Network.dyn_peer[2] 	lookupHopsSig:mean 	2.2490118577075
scalar Network.dyn_peer[3] 	lookupTimeSig:mean 	0.31875
scalar Network.dyn_peer[3] 	lookupStabilitySig:mean 	0.90033453817887
scalar Network.dyn_peer[3] 	lookupHopsSig:mean 	2.3125
scalar Network.dyn_peer[4] 	lookupTimeSig:mean 	0.33
scalar Network.dyn_peer[4] 	lookupStabilitySig:mean 	0.89430133916724
scalar Network.dyn_peer[4] 	lookupHopsSig:mean 	2.4269230769231
scalar Network.dyn_peer[5] 	lookupTimeSig:mean 	0.3
scalar Network.dyn_peer[5] 	lookupStabilitySig:mean 	0.88081794087423
scalar Network.dyn_peer[5] 	lookupHopsSig:mean 	2.1314741035857
scalar Network.dyn_peer[6] 	lookupTimeSig:mean 	0.31642335766423
scalar Network.dyn_peer[6] 	lookupStabilitySig:mean 	0.90048488740721
scalar Network.dyn_peer[6] 	lookupHopsSig:mean 	2.2810218978102
scalar Network.dyn_peer[7] 	lookupTimeSig:mean 	0.30458333333333
scalar Network.dyn_peer[7] 	lookupStabilitySig:mean 	0.89414735774044
scalar Network.dyn_peer[7] 	lookupHopsSig:mean 	2.1791666666667
scalar Network.dyn_peer[8] 	lookupTimeSig:mean 	0.31330275229358
scalar Network.dyn_peer[8] 	lookupStabilitySig:mean 	0.8991477228103
scalar Network.dyn_peer[8] 	lookupHopsSig:mean 	2.2798165137615
scalar Network.dyn_peer[9] 	lookupTimeSig:mean 	0.3
scalar Network.dyn_peer[9] 	lookupStabilitySig:mean 	0.89869934323747
scalar Network.dyn_peer[9] 	lookupHopsSig:mean 	2.141592920354
scalar Network.dyn_peer[10] 	lookupTimeSig:mean 	0.31502145922747
scalar Network.dyn_peer[10] 	lookupStabilitySig:mean 	0.88651574428629
scalar Network.dyn_peer[10] 	lookupHopsSig:mean 	2.2918454935622
scalar Network.dyn_peer[11] 	lookupTimeSig:mean 	0.31428571428571
scalar Network.dyn_peer[11] 	lookupStabilitySig:mean 	0.89416493402476
scalar Network.dyn_peer[11] 	lookupHopsSig:mean 	2.2903225806452
scalar Network.dyn_peer[12] 	lookupTimeSig:mean 	0.329296875
scalar Network.dyn_peer[12] 	lookupStabilitySig:mean 	0.89413825918746
scalar Network.dyn_peer[12] 	lookupHopsSig:mean 	2.41796875
scalar Network.dyn_peer[13] 	lookupTimeSig:mean 	0.32365145228216
scalar Network.dyn_peer[13] 	lookupStabilitySig:mean 	0.9032647663967
scalar Network.dyn_peer[13] 	lookupHopsSig:mean 	2.3692946058091
scalar Network.dyn_peer[14] 	lookupTimeSig:mean 	0.325
scalar Network.dyn_peer[14] 	lookupStabilitySig:mean 	0.89072100128396
scalar Network.dyn_peer[14] 	lookupHopsSig:mean 	2.37890625
scalar Network.dyn_peer[15] 	lookupTimeSig:mean 	0.3298755186722
scalar Network.dyn_peer[15] 	lookupStabilitySig:mean 	0.89319432240088
scalar Network.dyn_peer[15] 	lookupHopsSig:mean 	2.4315352697095
scalar Network.dyn_peer[16] 	lookupTimeSig:mean 	0.3253112033195
scalar Network.dyn_peer[16] 	lookupStabilitySig:mean 	0.89649075636045
scalar Network.dyn_peer[16] 	lookupHopsSig:mean 	2.3858921161826
scalar Network.dyn_peer[17] 	lookupTimeSig:mean 	0.31532258064516
scalar Network.dyn_peer[17] 	lookupStabilitySig:mean 	0.89631808878133
scalar Network.dyn_peer[17] 	lookupHopsSig:mean 	2.2862903225806
scalar Network.dyn_peer[18] 	lookupTimeSig:mean 	0.32489795918367
scalar Network.dyn_peer[18] 	lookupStabilitySig:mean 	0.89476567554687
scalar Network.dyn_peer[18] 	lookupHopsSig:mean 	2.3795918367347
scalar Network.dyn_peer[19] 	lookupTimeSig:mean 	0.33152709359606
scalar Network.dyn_peer[19] 	lookupStabilitySig:mean 	0.88473890000596
scalar Network.dyn_peer[19] 	lookupHopsSig:mean 	2.4729064039409
scalar Network.dyn_peer[20] 	lookupTimeSig:mean 	0.32608695652174
scalar Network.dyn_peer[20] 	lookupStabilitySig:mean 	0.89180796601526
scalar Network.dyn_peer[20] 	lookupHopsSig:mean 	2.4202898550725
scalar Network.dyn_peer[21] 	lookupTimeSig:mean 	0.30570175438596
scalar Network.dyn_peer[21] 	lookupStabilitySig:mean 	0.89407630062156
scalar Network.dyn_peer[21] 	lookupHopsSig:mean 	2.2017543859649
scalar Network.dyn_peer[22] 	lookupTimeSig:mean 	0.29791666666667
scalar Network.dyn_peer[22] 	lookupStabilitySig:mean 	0.90590611543351
scalar Network.dyn_peer[22] 	lookupHopsSig:mean 	2.1125
scalar Network.dyn_peer[23] 	lookupTimeSig:mean 	0.3304
scalar Network.dyn_peer[23] 	lookupStabilitySig:mean 	0.8874125623256
scalar Network.dyn_peer[23] 	lookupHopsSig:mean 	2.436
scalar Network.dyn_peer[24] 	lookupTimeSig:mean 	0.30987124463519
scalar Network.dyn_peer[24] 	lookupStabilitySig:mean 	0.90482763879705
scalar Network.dyn_peer[24] 	lookupHopsSig:mean 	2.2360515021459
scalar Network.dyn_peer[25] 	lookupTimeSig:mean 	0.32428571428571
scalar Network.dyn_peer[25] 	lookupStabilitySig:mean 	0.90021551329465
scalar Network.dyn_peer[25] 	lookupHopsSig:mean 	2.3952380952381
scalar Network.dyn_peer[26] 	lookupTimeSig:mean 	0.29626865671642
scalar Network.dyn_peer[26] 	lookupStabilitySig:mean 	0.89107398404531
scalar Network.dyn_peer[26] 	lookupHopsSig:mean 	2.0820895522388
scalar Network.dyn_peer[27] 	lookupTimeSig:mean 	0.3295358649789
scalar Network.dyn_peer[27] 	lookupStabilitySig:mean 	0.89498110348162
scalar Network.dyn_peer[27] 	lookupHopsSig:mean 	2.4345991561181
scalar Network.dyn_peer[28] 	lookupTimeSig:mean 	0.31076923076923
scalar Network.dyn_peer[28] 	lookupStabilitySig:mean 	0.90695750742004
scalar Network.dyn_peer[28] 	lookupHopsSig:mean 	2.2717948717949
scalar Network.dyn_peer[29] 	lookupTimeSig:mean 	0.31935483870968
scalar Network.dyn_peer[29] 	lookupStabilitySig:mean 	0.89938477821614
scalar Network.dyn_peer[29] 	lookupHopsSig:mean 	2.3410138248848
scalar Network.dyn_peer[30] 	lookupTimeSig:mean 	0.33432203389831
scalar Network.dyn_peer[30] 	lookupStabilitySig:mean 	0.89738213608704
scalar Network.dyn_peer[30] 	lookupHopsSig:mean 	2.478813559322
scalar Network.dyn_peer[31] 	lookupTimeSig:mean 	0.32330097087379
scalar Network.dyn_peer[31] 	lookupStabilitySig:mean 	0.90209535318562
scalar Network.dyn_peer[31] 	lookupHopsSig:mean 	2.3834951456311
