version 2
run Stability-26-20130524-20:21:42-3483
attr configname Stability
attr datetime 20130524-20:21:42
attr experiment Stability
attr inifile omnetpp.ini
attr iterationvars $0=1e4
attr iterationvars2 "$0=1e4, $repetition=6"
attr measurement $0=1e4
attr network Network
attr processid 3483
attr repetition 6
attr replication #6
attr resultdir results
attr runnumber 26
attr seedset 26

scalar Network.dyn_peer[0] 	lookupTimeSig:mean 	0.26610169491525
scalar Network.dyn_peer[0] 	lookupStabilitySig:mean 	0.86379564847103
scalar Network.dyn_peer[0] 	lookupHopsSig:mean 	1.7966101694915
scalar Network.dyn_peer[1] 	lookupTimeSig:mean 	0.23963963963964
scalar Network.dyn_peer[1] 	lookupStabilitySig:mean 	0.87403206597712
scalar Network.dyn_peer[1] 	lookupHopsSig:mean 	1.5495495495495
scalar Network.dyn_peer[2] 	lookupTimeSig:mean 	0.25373134328358
scalar Network.dyn_peer[2] 	lookupStabilitySig:mean 	0.87816940067308
scalar Network.dyn_peer[2] 	lookupHopsSig:mean 	1.6567164179104
scalar Network.dyn_peer[3] 	lookupTimeSig:mean 	0.23725490196078
scalar Network.dyn_peer[3] 	lookupStabilitySig:mean 	0.8775072128092
scalar Network.dyn_peer[3] 	lookupHopsSig:mean 	1.5294117647059
scalar Network.dyn_peer[4] 	lookupTimeSig:mean 	0.24311111111111
scalar Network.dyn_peer[4] 	lookupStabilitySig:mean 	0.88200069510274
scalar Network.dyn_peer[4] 	lookupHopsSig:mean 	1.5733333333333
scalar Network.dyn_peer[5] 	lookupTimeSig:mean 	0.24444444444444
scalar Network.dyn_peer[5] 	lookupStabilitySig:mean 	0.86839907026089
scalar Network.dyn_peer[5] 	lookupHopsSig:mean 	1.6183574879227
scalar Network.dyn_peer[6] 	lookupTimeSig:mean 	0.24674329501916
scalar Network.dyn_peer[6] 	lookupStabilitySig:mean 	0.88231377419213
scalar Network.dyn_peer[6] 	lookupHopsSig:mean 	1.5900383141762
scalar Network.dyn_peer[7] 	lookupTimeSig:mean 	0.23894736842105
scalar Network.dyn_peer[7] 	lookupStabilitySig:mean 	0.86538389019276
scalar Network.dyn_peer[7] 	lookupHopsSig:mean 	1.5789473684211
scalar Network.dyn_peer[8] 	lookupTimeSig:mean 	0.25255813953488
scalar Network.dyn_peer[8] 	lookupStabilitySig:mean 	0.87542551149463
scalar Network.dyn_peer[8] 	lookupHopsSig:mean 	1.6744186046512
scalar Network.dyn_peer[9] 	lookupTimeSig:mean 	0.23737373737374
scalar Network.dyn_peer[9] 	lookupStabilitySig:mean 	0.8666450742143
scalar Network.dyn_peer[9] 	lookupHopsSig:mean 	1.5505050505051
scalar Network.dyn_peer[10] 	lookupTimeSig:mean 	0.24387755102041
scalar Network.dyn_peer[10] 	lookupStabilitySig:mean 	0.87645306421102
scalar Network.dyn_peer[10] 	lookupHopsSig:mean 	1.6020408163265
scalar Network.dyn_peer[11] 	lookupTimeSig:mean 	0.24093264248705
scalar Network.dyn_peer[11] 	lookupStabilitySig:mean 	0.86705426057231
scalar Network.dyn_peer[11] 	lookupHopsSig:mean 	1.5958549222798
scalar Network.dyn_peer[12] 	lookupTimeSig:mean 	0.25
scalar Network.dyn_peer[12] 	lookupStabilitySig:mean 	0.873615671186
scalar Network.dyn_peer[12] 	lookupHopsSig:mean 	1.635593220339
scalar Network.dyn_peer[13] 	lookupTimeSig:mean 	0.25377777777778
scalar Network.dyn_peer[13] 	lookupStabilitySig:mean 	0.86572704416182
scalar Network.dyn_peer[13] 	lookupHopsSig:mean 	1.6844444444444
scalar Network.dyn_peer[14] 	lookupTimeSig:mean 	0.26042553191489
scalar Network.dyn_peer[14] 	lookupStabilitySig:mean 	0.86564092474415
scalar Network.dyn_peer[14] 	lookupHopsSig:mean 	1.7404255319149
scalar Network.dyn_peer[15] 	lookupTimeSig:mean 	0.24358974358974
scalar Network.dyn_peer[15] 	lookupStabilitySig:mean 	0.87340819590494
scalar Network.dyn_peer[15] 	lookupHopsSig:mean 	1.5769230769231
scalar Network.dyn_peer[16] 	lookupTimeSig:mean 	0.2530701754386
scalar Network.dyn_peer[16] 	lookupStabilitySig:mean 	0.8764881606034
scalar Network.dyn_peer[16] 	lookupHopsSig:mean 	1.6710526315789
scalar Network.dyn_peer[17] 	lookupTimeSig:mean 	0.24908256880734
scalar Network.dyn_peer[17] 	lookupStabilitySig:mean 	0.86569512081802
scalar Network.dyn_peer[17] 	lookupHopsSig:mean 	1.6467889908257
scalar Network.dyn_peer[18] 	lookupTimeSig:mean 	0.24181818181818
scalar Network.dyn_peer[18] 	lookupStabilitySig:mean 	0.88357457469471
scalar Network.dyn_peer[18] 	lookupHopsSig:mean 	1.5636363636364
scalar Network.dyn_peer[19] 	lookupTimeSig:mean 	0.24141414141414
scalar Network.dyn_peer[19] 	lookupStabilitySig:mean 	0.86601130114962
scalar Network.dyn_peer[19] 	lookupHopsSig:mean 	1.5858585858586
scalar Network.dyn_peer[20] 	lookupTimeSig:mean 	0.24646464646465
scalar Network.dyn_peer[20] 	lookupStabilitySig:mean 	0.87347887798843
scalar Network.dyn_peer[20] 	lookupHopsSig:mean 	1.6262626262626
scalar Network.dyn_peer[21] 	lookupTimeSig:mean 	0.25
scalar Network.dyn_peer[21] 	lookupStabilitySig:mean 	0.86744022803462
scalar Network.dyn_peer[21] 	lookupHopsSig:mean 	1.6521739130435
scalar Network.dyn_peer[22] 	lookupTimeSig:mean 	0.24959016393443
scalar Network.dyn_peer[22] 	lookupStabilitySig:mean 	0.87616109614428
scalar Network.dyn_peer[22] 	lookupHopsSig:mean 	1.6270491803279
scalar Network.dyn_peer[23] 	lookupTimeSig:mean 	0.25707317073171
scalar Network.dyn_peer[23] 	lookupStabilitySig:mean 	0.86077677009673
scalar Network.dyn_peer[23] 	lookupHopsSig:mean 	1.7365853658537
scalar Network.dyn_peer[24] 	lookupTimeSig:mean 	0.25467625899281
scalar Network.dyn_peer[24] 	lookupStabilitySig:mean 	0.87559404955815
scalar Network.dyn_peer[24] 	lookupHopsSig:mean 	1.6618705035971
scalar Network.dyn_peer[25] 	lookupTimeSig:mean 	0.24632034632035
scalar Network.dyn_peer[25] 	lookupStabilitySig:mean 	0.87477733317392
scalar Network.dyn_peer[25] 	lookupHopsSig:mean 	1.6103896103896
scalar Network.dyn_peer[26] 	lookupTimeSig:mean 	0.24173913043478
scalar Network.dyn_peer[26] 	lookupStabilitySig:mean 	0.88225834691978
scalar Network.dyn_peer[26] 	lookupHopsSig:mean 	1.5565217391304
scalar Network.dyn_peer[27] 	lookupTimeSig:mean 	0.26123348017621
scalar Network.dyn_peer[27] 	lookupStabilitySig:mean 	0.85527847454543
scalar Network.dyn_peer[27] 	lookupHopsSig:mean 	1.7797356828194
scalar Network.dyn_peer[28] 	lookupTimeSig:mean 	0.25066666666667
scalar Network.dyn_peer[28] 	lookupStabilitySig:mean 	0.87513896054692
scalar Network.dyn_peer[28] 	lookupHopsSig:mean 	1.6488888888889
scalar Network.dyn_peer[29] 	lookupTimeSig:mean 	0.24699453551913
scalar Network.dyn_peer[29] 	lookupStabilitySig:mean 	0.86164478161703
scalar Network.dyn_peer[29] 	lookupHopsSig:mean 	1.6612021857923
scalar Network.dyn_peer[30] 	lookupTimeSig:mean 	0.24911504424779
scalar Network.dyn_peer[30] 	lookupStabilitySig:mean 	0.87658930180875
scalar Network.dyn_peer[30] 	lookupHopsSig:mean 	1.6327433628319
scalar Network.dyn_peer[31] 	lookupTimeSig:mean 	0.247533632287
scalar Network.dyn_peer[31] 	lookupStabilitySig:mean 	0.866897232747
scalar Network.dyn_peer[31] 	lookupHopsSig:mean 	1.6367713004484
