version 2
run Stability-96-20130524-20:23:57-3483
attr configname Stability
attr datetime 20130524-20:23:57
attr experiment Stability
attr inifile omnetpp.ini
attr iterationvars $0=1e-3
attr iterationvars2 "$0=1e-3, $repetition=6"
attr measurement $0=1e-3
attr network Network
attr processid 3483
attr repetition 6
attr replication #6
attr resultdir results
attr runnumber 96
attr seedset 96

scalar Network.dyn_peer[0] 	lookupTimeSig:mean 	0.42042253521127
scalar Network.dyn_peer[0] 	lookupStabilitySig:mean 	0.76132365960208
scalar Network.dyn_peer[0] 	lookupHopsSig:mean 	3.443661971831
scalar Network.dyn_peer[1] 	lookupTimeSig:mean 	0.38103448275862
scalar Network.dyn_peer[1] 	lookupStabilitySig:mean 	0.73864985156226
scalar Network.dyn_peer[1] 	lookupHopsSig:mean 	3.0948275862069
scalar Network.dyn_peer[2] 	lookupTimeSig:mean 	0.4046511627907
scalar Network.dyn_peer[2] 	lookupStabilitySig:mean 	0.74588615416961
scalar Network.dyn_peer[2] 	lookupHopsSig:mean 	3.3178294573643
scalar Network.dyn_peer[3] 	lookupTimeSig:mean 	0.39420289855072
scalar Network.dyn_peer[3] 	lookupStabilitySig:mean 	0.76607042277043
scalar Network.dyn_peer[3] 	lookupHopsSig:mean 	3.2101449275362
scalar Network.dyn_peer[4] 	lookupTimeSig:mean 	0.24718309859155
scalar Network.dyn_peer[4] 	lookupStabilitySig:mean 	0.76584507042254
scalar Network.dyn_peer[4] 	lookupHopsSig:mean 	1.8732394366197
scalar Network.dyn_peer[5] 	lookupTimeSig:mean 	0.4203125
scalar Network.dyn_peer[5] 	lookupStabilitySig:mean 	0.74353963090107
scalar Network.dyn_peer[5] 	lookupHopsSig:mean 	3.4609375
scalar Network.dyn_peer[6] 	lookupTimeSig:mean 	0.41317829457364
scalar Network.dyn_peer[6] 	lookupStabilitySig:mean 	0.75293118225107
scalar Network.dyn_peer[6] 	lookupHopsSig:mean 	3.3875968992248
scalar Network.dyn_peer[7] 	lookupTimeSig:mean 	0.40833333333333
scalar Network.dyn_peer[7] 	lookupStabilitySig:mean 	0.7316196721668
scalar Network.dyn_peer[7] 	lookupHopsSig:mean 	3.3833333333333
scalar Network.dyn_peer[8] 	lookupTimeSig:mean 	0.41481481481481
scalar Network.dyn_peer[8] 	lookupStabilitySig:mean 	0.75565281608314
scalar Network.dyn_peer[8] 	lookupHopsSig:mean 	3.4148148148148
scalar Network.dyn_peer[9] 	lookupTimeSig:mean 	0.40245901639344
scalar Network.dyn_peer[9] 	lookupStabilitySig:mean 	0.73523663796607
scalar Network.dyn_peer[9] 	lookupHopsSig:mean 	3.3032786885246
scalar Network.dyn_peer[10] 	lookupTimeSig:mean 	0.43537414965986
scalar Network.dyn_peer[10] 	lookupStabilitySig:mean 	0.75896087362349
scalar Network.dyn_peer[10] 	lookupHopsSig:mean 	3.5986394557823
scalar Network.dyn_peer[11] 	lookupTimeSig:mean 	0.40169491525424
scalar Network.dyn_peer[11] 	lookupStabilitySig:mean 	0.73909773926993
scalar Network.dyn_peer[11] 	lookupHopsSig:mean 	3.3050847457627
scalar Network.dyn_peer[12] 	lookupTimeSig:mean 	0.44149659863946
scalar Network.dyn_peer[12] 	lookupStabilitySig:mean 	0.75757277337517
scalar Network.dyn_peer[12] 	lookupHopsSig:mean 	3.6598639455782
scalar Network.dyn_peer[13] 	lookupTimeSig:mean 	0.41118881118881
scalar Network.dyn_peer[13] 	lookupStabilitySig:mean 	0.76614105431819
scalar Network.dyn_peer[13] 	lookupHopsSig:mean 	3.3356643356643
scalar Network.dyn_peer[14] 	lookupTimeSig:mean 	0.4008064516129
scalar Network.dyn_peer[14] 	lookupStabilitySig:mean 	0.74777913075541
scalar Network.dyn_peer[14] 	lookupHopsSig:mean 	3.2822580645161
scalar Network.dyn_peer[15] 	lookupTimeSig:mean 	0.40692307692308
scalar Network.dyn_peer[15] 	lookupStabilitySig:mean 	0.74582612247994
scalar Network.dyn_peer[15] 	lookupHopsSig:mean 	3.3384615384615
scalar Network.dyn_peer[16] 	lookupTimeSig:mean 	0.42877697841727
scalar Network.dyn_peer[16] 	lookupStabilitySig:mean 	0.75426911170052
scalar Network.dyn_peer[16] 	lookupHopsSig:mean 	3.5323741007194
scalar Network.dyn_peer[17] 	lookupTimeSig:mean 	0.41259842519685
scalar Network.dyn_peer[17] 	lookupStabilitySig:mean 	0.74919165801404
scalar Network.dyn_peer[17] 	lookupHopsSig:mean 	3.3858267716535
scalar Network.dyn_peer[18] 	lookupTimeSig:mean 	0.38920863309353
scalar Network.dyn_peer[18] 	lookupStabilitySig:mean 	0.76023108844491
scalar Network.dyn_peer[18] 	lookupHopsSig:mean 	3.136690647482
scalar Network.dyn_peer[19] 	lookupTimeSig:mean 	0.42592592592593
scalar Network.dyn_peer[19] 	lookupStabilitySig:mean 	0.74298158802644
scalar Network.dyn_peer[19] 	lookupHopsSig:mean 	3.5481481481481
scalar Network.dyn_peer[20] 	lookupTimeSig:mean 	0.4
scalar Network.dyn_peer[20] 	lookupStabilitySig:mean 	0.76552713094723
scalar Network.dyn_peer[20] 	lookupHopsSig:mean 	3.2380952380952
scalar Network.dyn_peer[21] 	lookupTimeSig:mean 	0.41397058823529
scalar Network.dyn_peer[21] 	lookupStabilitySig:mean 	0.75355903545449
scalar Network.dyn_peer[21] 	lookupHopsSig:mean 	3.4191176470588
scalar Network.dyn_peer[22] 	lookupTimeSig:mean 	0.41605839416058
scalar Network.dyn_peer[22] 	lookupStabilitySig:mean 	0.7452138982115
scalar Network.dyn_peer[22] 	lookupHopsSig:mean 	3.4087591240876
scalar Network.dyn_peer[23] 	lookupTimeSig:mean 	0.39837398373984
scalar Network.dyn_peer[23] 	lookupStabilitySig:mean 	0.75284825737883
scalar Network.dyn_peer[23] 	lookupHopsSig:mean 	3.2520325203252
scalar Network.dyn_peer[24] 	lookupTimeSig:mean 	0.39291338582677
scalar Network.dyn_peer[24] 	lookupStabilitySig:mean 	0.75412984358103
scalar Network.dyn_peer[24] 	lookupHopsSig:mean 	3.1968503937008
scalar Network.dyn_peer[25] 	lookupTimeSig:mean 	0.43900709219858
scalar Network.dyn_peer[25] 	lookupStabilitySig:mean 	0.75753024175552
scalar Network.dyn_peer[25] 	lookupHopsSig:mean 	3.6241134751773
scalar Network.dyn_peer[26] 	lookupTimeSig:mean 	0.44029850746269
scalar Network.dyn_peer[26] 	lookupStabilitySig:mean 	0.73601963548963
scalar Network.dyn_peer[26] 	lookupHopsSig:mean 	3.7089552238806
scalar Network.dyn_peer[27] 	lookupTimeSig:mean 	0.42518518518518
scalar Network.dyn_peer[27] 	lookupStabilitySig:mean 	0.74975807044517
scalar Network.dyn_peer[27] 	lookupHopsSig:mean 	3.5037037037037
scalar Network.dyn_peer[28] 	lookupTimeSig:mean 	0.39083969465649
scalar Network.dyn_peer[28] 	lookupStabilitySig:mean 	0.75789367586716
scalar Network.dyn_peer[28] 	lookupHopsSig:mean 	3.1526717557252
scalar Network.dyn_peer[29] 	lookupTimeSig:mean 	0.41901408450704
scalar Network.dyn_peer[29] 	lookupStabilitySig:mean 	0.7574903631819
scalar Network.dyn_peer[29] 	lookupHopsSig:mean 	3.4295774647887
scalar Network.dyn_peer[30] 	lookupTimeSig:mean 	0.38264462809917
scalar Network.dyn_peer[30] 	lookupStabilitySig:mean 	0.74515278223317
scalar Network.dyn_peer[30] 	lookupHopsSig:mean 	3.1157024793388
scalar Network.dyn_peer[31] 	lookupTimeSig:mean 	0.3816
scalar Network.dyn_peer[31] 	lookupStabilitySig:mean 	0.75812525305152
scalar Network.dyn_peer[31] 	lookupHopsSig:mean 	3.08
