version 2
run Stability-52-20130524-20:22:39-3483
attr configname Stability
attr datetime 20130524-20:22:39
attr experiment Stability
attr inifile omnetpp.ini
attr iterationvars $0=1e1
attr iterationvars2 "$0=1e1, $repetition=2"
attr measurement $0=1e1
attr network Network
attr processid 3483
attr repetition 2
attr replication #2
attr resultdir results
attr runnumber 52
attr seedset 52

scalar Network.dyn_peer[0] 	lookupTimeSig:mean 	0.37697841726619
scalar Network.dyn_peer[0] 	lookupStabilitySig:mean 	0.78418723692139
scalar Network.dyn_peer[0] 	lookupHopsSig:mean 	3
scalar Network.dyn_peer[1] 	lookupTimeSig:mean 	0.42638036809816
scalar Network.dyn_peer[1] 	lookupStabilitySig:mean 	0.7971572317183
scalar Network.dyn_peer[1] 	lookupHopsSig:mean 	3.4601226993865
scalar Network.dyn_peer[2] 	lookupTimeSig:mean 	0.40680272108844
scalar Network.dyn_peer[2] 	lookupStabilitySig:mean 	0.78701339189445
scalar Network.dyn_peer[2] 	lookupHopsSig:mean 	3.2857142857143
scalar Network.dyn_peer[3] 	lookupTimeSig:mean 	0.38581560283688
scalar Network.dyn_peer[3] 	lookupStabilitySig:mean 	0.78448088907022
scalar Network.dyn_peer[3] 	lookupHopsSig:mean 	3.0851063829787
scalar Network.dyn_peer[4] 	lookupTimeSig:mean 	0.38695652173913
scalar Network.dyn_peer[4] 	lookupStabilitySig:mean 	0.78008506371491
scalar Network.dyn_peer[4] 	lookupHopsSig:mean 	3.1014492753623
scalar Network.dyn_peer[5] 	lookupTimeSig:mean 	0.4
scalar Network.dyn_peer[5] 	lookupStabilitySig:mean 	0.75670535096692
scalar Network.dyn_peer[5] 	lookupHopsSig:mean 	3.2539682539683
scalar Network.dyn_peer[6] 	lookupTimeSig:mean 	0.41287878787879
scalar Network.dyn_peer[6] 	lookupStabilitySig:mean 	0.762526049702
scalar Network.dyn_peer[6] 	lookupHopsSig:mean 	3.3712121212121
scalar Network.dyn_peer[7] 	lookupTimeSig:mean 	0.38879310344828
scalar Network.dyn_peer[7] 	lookupStabilitySig:mean 	0.75576809904506
scalar Network.dyn_peer[7] 	lookupHopsSig:mean 	3.1637931034483
scalar Network.dyn_peer[8] 	lookupTimeSig:mean 	0.38382352941176
scalar Network.dyn_peer[8] 	lookupStabilitySig:mean 	0.7701338260188
scalar Network.dyn_peer[8] 	lookupHopsSig:mean 	3.0735294117647
scalar Network.dyn_peer[9] 	lookupTimeSig:mean 	0.39477611940299
scalar Network.dyn_peer[9] 	lookupStabilitySig:mean 	0.77310960008693
scalar Network.dyn_peer[9] 	lookupHopsSig:mean 	3.1865671641791
scalar Network.dyn_peer[10] 	lookupTimeSig:mean 	0.40434782608696
scalar Network.dyn_peer[10] 	lookupStabilitySig:mean 	0.76932689886324
scalar Network.dyn_peer[10] 	lookupHopsSig:mean 	3.2753623188406
scalar Network.dyn_peer[11] 	lookupTimeSig:mean 	0.43233082706767
scalar Network.dyn_peer[11] 	lookupStabilitySig:mean 	0.76572921849731
scalar Network.dyn_peer[11] 	lookupHopsSig:mean 	3.5639097744361
scalar Network.dyn_peer[12] 	lookupTimeSig:mean 	0.40405405405405
scalar Network.dyn_peer[12] 	lookupStabilitySig:mean 	0.79085961931914
scalar Network.dyn_peer[12] 	lookupHopsSig:mean 	3.2567567567568
scalar Network.dyn_peer[13] 	lookupTimeSig:mean 	0.4
scalar Network.dyn_peer[13] 	lookupStabilitySig:mean 	0.74872672858358
scalar Network.dyn_peer[13] 	lookupHopsSig:mean 	3.2689075630252
scalar Network.dyn_peer[14] 	lookupTimeSig:mean 	0.4297520661157
scalar Network.dyn_peer[14] 	lookupStabilitySig:mean 	0.74388602588418
scalar Network.dyn_peer[14] 	lookupHopsSig:mean 	3.5619834710744
scalar Network.dyn_peer[15] 	lookupTimeSig:mean 	0.42158273381295
scalar Network.dyn_peer[15] 	lookupStabilitySig:mean 	0.77496079206735
scalar Network.dyn_peer[15] 	lookupHopsSig:mean 	3.4460431654676
scalar Network.dyn_peer[16] 	lookupTimeSig:mean 	0.39765625
scalar Network.dyn_peer[16] 	lookupStabilitySig:mean 	0.76119376588031
scalar Network.dyn_peer[16] 	lookupHopsSig:mean 	3.2265625
scalar Network.dyn_peer[17] 	lookupTimeSig:mean 	0.39212598425197
scalar Network.dyn_peer[17] 	lookupStabilitySig:mean 	0.76428736928176
scalar Network.dyn_peer[17] 	lookupHopsSig:mean 	3.1732283464567
scalar Network.dyn_peer[18] 	lookupTimeSig:mean 	0.3993006993007
scalar Network.dyn_peer[18] 	lookupStabilitySig:mean 	0.77513122558594
scalar Network.dyn_peer[18] 	lookupHopsSig:mean 	3.2167832167832
scalar Network.dyn_peer[19] 	lookupTimeSig:mean 	0.3968992248062
scalar Network.dyn_peer[19] 	lookupStabilitySig:mean 	0.76789759769458
scalar Network.dyn_peer[19] 	lookupHopsSig:mean 	3.2170542635659
scalar Network.dyn_peer[20] 	lookupTimeSig:mean 	0.42166666666667
scalar Network.dyn_peer[20] 	lookupStabilitySig:mean 	0.74732726003664
scalar Network.dyn_peer[20] 	lookupHopsSig:mean 	3.4833333333333
scalar Network.dyn_peer[21] 	lookupTimeSig:mean 	0.41985294117647
scalar Network.dyn_peer[21] 	lookupStabilitySig:mean 	0.78026076048777
scalar Network.dyn_peer[21] 	lookupHopsSig:mean 	3.4338235294118
scalar Network.dyn_peer[22] 	lookupTimeSig:mean 	0.41570247933884
scalar Network.dyn_peer[22] 	lookupStabilitySig:mean 	0.74867355915879
scalar Network.dyn_peer[22] 	lookupHopsSig:mean 	3.4214876033058
scalar Network.dyn_peer[23] 	lookupTimeSig:mean 	0.40204081632653
scalar Network.dyn_peer[23] 	lookupStabilitySig:mean 	0.78682330334369
scalar Network.dyn_peer[23] 	lookupHopsSig:mean 	3.2380952380952
scalar Network.dyn_peer[24] 	lookupTimeSig:mean 	0.40671641791045
scalar Network.dyn_peer[24] 	lookupStabilitySig:mean 	0.77809060623508
scalar Network.dyn_peer[24] 	lookupHopsSig:mean 	3.3059701492537
scalar Network.dyn_peer[25] 	lookupTimeSig:mean 	0.39109589041096
scalar Network.dyn_peer[25] 	lookupStabilitySig:mean 	0.7830092301975
scalar Network.dyn_peer[25] 	lookupHopsSig:mean 	3.1301369863014
scalar Network.dyn_peer[26] 	lookupTimeSig:mean 	0.3832
scalar Network.dyn_peer[26] 	lookupStabilitySig:mean 	0.75744327718019
scalar Network.dyn_peer[26] 	lookupHopsSig:mean 	3.088
scalar Network.dyn_peer[27] 	lookupTimeSig:mean 	0.39393939393939
scalar Network.dyn_peer[27] 	lookupStabilitySig:mean 	0.76714743016231
scalar Network.dyn_peer[27] 	lookupHopsSig:mean 	3.1818181818182
scalar Network.dyn_peer[28] 	lookupTimeSig:mean 	0.39375
scalar Network.dyn_peer[28] 	lookupStabilitySig:mean 	0.76245822472265
scalar Network.dyn_peer[28] 	lookupHopsSig:mean 	3.1875
scalar Network.dyn_peer[29] 	lookupTimeSig:mean 	0.40483870967742
scalar Network.dyn_peer[29] 	lookupStabilitySig:mean 	0.75815011883876
scalar Network.dyn_peer[29] 	lookupHopsSig:mean 	3.3064516129032
scalar Network.dyn_peer[30] 	lookupTimeSig:mean 	0.4
scalar Network.dyn_peer[30] 	lookupStabilitySig:mean 	0.75660703960984
scalar Network.dyn_peer[30] 	lookupHopsSig:mean 	3.2539682539683
scalar Network.dyn_peer[31] 	lookupTimeSig:mean 	0.38571428571429
scalar Network.dyn_peer[31] 	lookupStabilitySig:mean 	0.76017650074902
scalar Network.dyn_peer[31] 	lookupHopsSig:mean 	3.1111111111111
