version 2
run Stability-105-20130524-20:24:13-3483
attr configname Stability
attr datetime 20130524-20:24:13
attr experiment Stability
attr inifile omnetpp.ini
attr iterationvars $0=1e-4
attr iterationvars2 "$0=1e-4, $repetition=5"
attr measurement $0=1e-4
attr network Network
attr processid 3483
attr repetition 5
attr replication #5
attr resultdir results
attr runnumber 105
attr seedset 105

scalar Network.dyn_peer[0] 	lookupTimeSig:mean 	0.4078431372549
scalar Network.dyn_peer[0] 	lookupStabilitySig:mean 	0.77311390310867
scalar Network.dyn_peer[0] 	lookupHopsSig:mean 	3.3006535947712
scalar Network.dyn_peer[1] 	lookupTimeSig:mean 	0.40510948905109
scalar Network.dyn_peer[1] 	lookupStabilitySig:mean 	0.74633648579627
scalar Network.dyn_peer[1] 	lookupHopsSig:mean 	3.3649635036496
scalar Network.dyn_peer[2] 	lookupTimeSig:mean 	0.38538461538462
scalar Network.dyn_peer[2] 	lookupStabilitySig:mean 	0.76088280411294
scalar Network.dyn_peer[2] 	lookupHopsSig:mean 	3.1230769230769
scalar Network.dyn_peer[3] 	lookupTimeSig:mean 	0.40833333333333
scalar Network.dyn_peer[3] 	lookupStabilitySig:mean 	0.7561252213817
scalar Network.dyn_peer[3] 	lookupHopsSig:mean 	3.3636363636364
scalar Network.dyn_peer[4] 	lookupTimeSig:mean 	0.41944444444444
scalar Network.dyn_peer[4] 	lookupStabilitySig:mean 	0.75884466060799
scalar Network.dyn_peer[4] 	lookupHopsSig:mean 	3.4513888888889
scalar Network.dyn_peer[5] 	lookupTimeSig:mean 	0.37348484848485
scalar Network.dyn_peer[5] 	lookupStabilitySig:mean 	0.76822585364183
scalar Network.dyn_peer[5] 	lookupHopsSig:mean 	3
scalar Network.dyn_peer[6] 	lookupTimeSig:mean 	0.41533333333333
scalar Network.dyn_peer[6] 	lookupStabilitySig:mean 	0.77109756102165
scalar Network.dyn_peer[6] 	lookupHopsSig:mean 	3.3866666666667
scalar Network.dyn_peer[7] 	lookupTimeSig:mean 	0.39125
scalar Network.dyn_peer[7] 	lookupStabilitySig:mean 	0.77789263199084
scalar Network.dyn_peer[7] 	lookupHopsSig:mean 	3.13125
scalar Network.dyn_peer[8] 	lookupTimeSig:mean 	0.41417910447761
scalar Network.dyn_peer[8] 	lookupStabilitySig:mean 	0.75042642281849
scalar Network.dyn_peer[8] 	lookupHopsSig:mean 	3.4179104477612
scalar Network.dyn_peer[9] 	lookupTimeSig:mean 	0.39703703703704
scalar Network.dyn_peer[9] 	lookupStabilitySig:mean 	0.75274760495457
scalar Network.dyn_peer[9] 	lookupHopsSig:mean 	3.2296296296296
scalar Network.dyn_peer[10] 	lookupTimeSig:mean 	0.41811023622047
scalar Network.dyn_peer[10] 	lookupStabilitySig:mean 	0.74243846396351
scalar Network.dyn_peer[10] 	lookupHopsSig:mean 	3.4566929133858
scalar Network.dyn_peer[11] 	lookupTimeSig:mean 	0.24769230769231
scalar Network.dyn_peer[11] 	lookupStabilitySig:mean 	0.76153846153846
scalar Network.dyn_peer[11] 	lookupHopsSig:mean 	1.9076923076923
scalar Network.dyn_peer[12] 	lookupTimeSig:mean 	0.41219512195122
scalar Network.dyn_peer[12] 	lookupStabilitySig:mean 	0.73898783365522
scalar Network.dyn_peer[12] 	lookupHopsSig:mean 	3.4065040650407
scalar Network.dyn_peer[13] 	lookupTimeSig:mean 	0.41870503597122
scalar Network.dyn_peer[13] 	lookupStabilitySig:mean 	0.76089448854327
scalar Network.dyn_peer[13] 	lookupHopsSig:mean 	3.4172661870504
scalar Network.dyn_peer[14] 	lookupTimeSig:mean 	0.42900763358779
scalar Network.dyn_peer[14] 	lookupStabilitySig:mean 	0.74802090364103
scalar Network.dyn_peer[14] 	lookupHopsSig:mean 	3.5648854961832
scalar Network.dyn_peer[15] 	lookupTimeSig:mean 	0.424375
scalar Network.dyn_peer[15] 	lookupStabilitySig:mean 	0.77138250509743
scalar Network.dyn_peer[15] 	lookupHopsSig:mean 	3.46875
scalar Network.dyn_peer[16] 	lookupTimeSig:mean 	0.3695652173913
scalar Network.dyn_peer[16] 	lookupStabilitySig:mean 	0.77533122009017
scalar Network.dyn_peer[16] 	lookupHopsSig:mean 	2.9347826086957
scalar Network.dyn_peer[17] 	lookupTimeSig:mean 	0.4051094890511
scalar Network.dyn_peer[17] 	lookupStabilitySig:mean 	0.76942562378508
scalar Network.dyn_peer[17] 	lookupHopsSig:mean 	3.3065693430657
scalar Network.dyn_peer[18] 	lookupTimeSig:mean 	0.42340425531915
scalar Network.dyn_peer[18] 	lookupStabilitySig:mean 	0.75297598864434
scalar Network.dyn_peer[18] 	lookupHopsSig:mean 	3.4822695035461
scalar Network.dyn_peer[19] 	lookupTimeSig:mean 	0.42520325203252
scalar Network.dyn_peer[19] 	lookupStabilitySig:mean 	0.74090421083194
scalar Network.dyn_peer[19] 	lookupHopsSig:mean 	3.5121951219512
scalar Network.dyn_peer[20] 	lookupTimeSig:mean 	0.3993006993007
scalar Network.dyn_peer[20] 	lookupStabilitySig:mean 	0.77581570653076
scalar Network.dyn_peer[20] 	lookupHopsSig:mean 	3.2237762237762
scalar Network.dyn_peer[21] 	lookupTimeSig:mean 	0.40162601626016
scalar Network.dyn_peer[21] 	lookupStabilitySig:mean 	0.7382100302938
scalar Network.dyn_peer[21] 	lookupHopsSig:mean 	3.3008130081301
scalar Network.dyn_peer[22] 	lookupTimeSig:mean 	0.41229508196721
scalar Network.dyn_peer[22] 	lookupStabilitySig:mean 	0.74117910390201
scalar Network.dyn_peer[22] 	lookupHopsSig:mean 	3.4016393442623
scalar Network.dyn_peer[23] 	lookupTimeSig:mean 	0.3796992481203
scalar Network.dyn_peer[23] 	lookupStabilitySig:mean 	0.76689157322665
scalar Network.dyn_peer[23] 	lookupHopsSig:mean 	3.0451127819549
scalar Network.dyn_peer[24] 	lookupTimeSig:mean 	0.40264900662252
scalar Network.dyn_peer[24] 	lookupStabilitySig:mean 	0.7748115266001
scalar Network.dyn_peer[24] 	lookupHopsSig:mean 	3.2582781456954
scalar Network.dyn_peer[25] 	lookupTimeSig:mean 	0.4
scalar Network.dyn_peer[25] 	lookupStabilitySig:mean 	0.77372615213972
scalar Network.dyn_peer[25] 	lookupHopsSig:mean 	3.2361111111111
scalar Network.dyn_peer[26] 	lookupTimeSig:mean 	0.40949367088608
scalar Network.dyn_peer[26] 	lookupStabilitySig:mean 	0.78013615239459
scalar Network.dyn_peer[26] 	lookupHopsSig:mean 	3.3101265822785
scalar Network.dyn_peer[27] 	lookupTimeSig:mean 	0.40555555555556
scalar Network.dyn_peer[27] 	lookupStabilitySig:mean 	0.77401272515352
scalar Network.dyn_peer[27] 	lookupHopsSig:mean 	3.2916666666667
scalar Network.dyn_peer[28] 	lookupTimeSig:mean 	0.39090909090909
scalar Network.dyn_peer[28] 	lookupStabilitySig:mean 	0.78212501039704
scalar Network.dyn_peer[28] 	lookupHopsSig:mean 	3.1493506493506
scalar Network.dyn_peer[29] 	lookupTimeSig:mean 	0.41418439716312
scalar Network.dyn_peer[29] 	lookupStabilitySig:mean 	0.75272596929989
scalar Network.dyn_peer[29] 	lookupHopsSig:mean 	3.3900709219858
scalar Network.dyn_peer[30] 	lookupTimeSig:mean 	0.3796992481203
scalar Network.dyn_peer[30] 	lookupStabilitySig:mean 	0.76117917714655
scalar Network.dyn_peer[30] 	lookupHopsSig:mean 	3.0526315789474
scalar Network.dyn_peer[31] 	lookupTimeSig:mean 	0.44632352941176
scalar Network.dyn_peer[31] 	lookupStabilitySig:mean 	0.74538443245761
scalar Network.dyn_peer[31] 	lookupHopsSig:mean 	3.7352941176471
