version 2
run Stability-46-20130524-20:22:27-3483
attr configname Stability
attr datetime 20130524-20:22:27
attr experiment Stability
attr inifile omnetpp.ini
attr iterationvars $0=1e2
attr iterationvars2 "$0=1e2, $repetition=6"
attr measurement $0=1e2
attr network Network
attr processid 3483
attr repetition 6
attr replication #6
attr resultdir results
attr runnumber 46
attr seedset 46

scalar Network.dyn_peer[0] 	lookupTimeSig:mean 	0.31141304347826
scalar Network.dyn_peer[0] 	lookupStabilitySig:mean 	0.82871139572893
scalar Network.dyn_peer[0] 	lookupHopsSig:mean 	2.2880434782609
scalar Network.dyn_peer[1] 	lookupTimeSig:mean 	0.3109756097561
scalar Network.dyn_peer[1] 	lookupStabilitySig:mean 	0.83189295457176
scalar Network.dyn_peer[1] 	lookupHopsSig:mean 	2.3048780487805
scalar Network.dyn_peer[2] 	lookupTimeSig:mean 	0.40233918128655
scalar Network.dyn_peer[2] 	lookupStabilitySig:mean 	0.86060192545996
scalar Network.dyn_peer[2] 	lookupHopsSig:mean 	3.2163742690058
scalar Network.dyn_peer[3] 	lookupTimeSig:mean 	0.32590361445783
scalar Network.dyn_peer[3] 	lookupStabilitySig:mean 	0.83059854763953
scalar Network.dyn_peer[3] 	lookupHopsSig:mean 	2.4518072289157
scalar Network.dyn_peer[4] 	lookupTimeSig:mean 	0.35147058823529
scalar Network.dyn_peer[4] 	lookupStabilitySig:mean 	0.84861394741079
scalar Network.dyn_peer[4] 	lookupHopsSig:mean 	2.75
scalar Network.dyn_peer[5] 	lookupTimeSig:mean 	0.32467532467532
scalar Network.dyn_peer[5] 	lookupStabilitySig:mean 	0.85968895306109
scalar Network.dyn_peer[5] 	lookupHopsSig:mean 	2.4545454545455
scalar Network.dyn_peer[6] 	lookupTimeSig:mean 	0.32091503267974
scalar Network.dyn_peer[6] 	lookupStabilitySig:mean 	0.81261093888943
scalar Network.dyn_peer[6] 	lookupHopsSig:mean 	2.4183006535948
scalar Network.dyn_peer[7] 	lookupTimeSig:mean 	0.36871165644172
scalar Network.dyn_peer[7] 	lookupStabilitySig:mean 	0.86387359377202
scalar Network.dyn_peer[7] 	lookupHopsSig:mean 	2.8895705521472
scalar Network.dyn_peer[8] 	lookupTimeSig:mean 	0.33931034482759
scalar Network.dyn_peer[8] 	lookupStabilitySig:mean 	0.87193005533311
scalar Network.dyn_peer[8] 	lookupHopsSig:mean 	2.6137931034483
scalar Network.dyn_peer[9] 	lookupTimeSig:mean 	0.36666666666667
scalar Network.dyn_peer[9] 	lookupStabilitySig:mean 	0.8563500064179
scalar Network.dyn_peer[9] 	lookupHopsSig:mean 	2.8505747126437
scalar Network.dyn_peer[10] 	lookupTimeSig:mean 	0.34907975460123
scalar Network.dyn_peer[10] 	lookupStabilitySig:mean 	0.82659093967062
scalar Network.dyn_peer[10] 	lookupHopsSig:mean 	2.6871165644172
scalar Network.dyn_peer[11] 	lookupTimeSig:mean 	0.375
scalar Network.dyn_peer[11] 	lookupStabilitySig:mean 	0.88872746595492
scalar Network.dyn_peer[11] 	lookupHopsSig:mean 	2.9277777777778
scalar Network.dyn_peer[12] 	lookupTimeSig:mean 	0.38780487804878
scalar Network.dyn_peer[12] 	lookupStabilitySig:mean 	0.88127998798722
scalar Network.dyn_peer[12] 	lookupHopsSig:mean 	3.0731707317073
scalar Network.dyn_peer[13] 	lookupTimeSig:mean 	0.31472081218274
scalar Network.dyn_peer[13] 	lookupStabilitySig:mean 	0.84440313017724
scalar Network.dyn_peer[13] 	lookupHopsSig:mean 	2.3096446700508
scalar Network.dyn_peer[14] 	lookupTimeSig:mean 	0.35777777777778
scalar Network.dyn_peer[14] 	lookupStabilitySig:mean 	0.84108325480311
scalar Network.dyn_peer[14] 	lookupHopsSig:mean 	2.8148148148148
scalar Network.dyn_peer[15] 	lookupTimeSig:mean 	0.36223776223776
scalar Network.dyn_peer[15] 	lookupStabilitySig:mean 	0.86265574150777
scalar Network.dyn_peer[15] 	lookupHopsSig:mean 	2.8461538461538
scalar Network.dyn_peer[16] 	lookupTimeSig:mean 	0.36967741935484
scalar Network.dyn_peer[16] 	lookupStabilitySig:mean 	0.8831947302626
scalar Network.dyn_peer[16] 	lookupHopsSig:mean 	2.9032258064516
scalar Network.dyn_peer[17] 	lookupTimeSig:mean 	0.34096385542169
scalar Network.dyn_peer[17] 	lookupStabilitySig:mean 	0.87142776247922
scalar Network.dyn_peer[17] 	lookupHopsSig:mean 	2.6024096385542
scalar Network.dyn_peer[18] 	lookupTimeSig:mean 	0.32824858757062
scalar Network.dyn_peer[18] 	lookupStabilitySig:mean 	0.86218091043628
scalar Network.dyn_peer[18] 	lookupHopsSig:mean 	2.4632768361582
scalar Network.dyn_peer[19] 	lookupTimeSig:mean 	0.33841059602649
scalar Network.dyn_peer[19] 	lookupStabilitySig:mean 	0.85001190248507
scalar Network.dyn_peer[19] 	lookupHopsSig:mean 	2.5960264900662
scalar Network.dyn_peer[20] 	lookupTimeSig:mean 	0.32671232876712
scalar Network.dyn_peer[20] 	lookupStabilitySig:mean 	0.83954069140839
scalar Network.dyn_peer[20] 	lookupHopsSig:mean 	2.486301369863
scalar Network.dyn_peer[21] 	lookupTimeSig:mean 	0.34428571428571
scalar Network.dyn_peer[21] 	lookupStabilitySig:mean 	0.85568631647953
scalar Network.dyn_peer[21] 	lookupHopsSig:mean 	2.6714285714286
scalar Network.dyn_peer[22] 	lookupTimeSig:mean 	0.39378881987578
scalar Network.dyn_peer[22] 	lookupStabilitySig:mean 	0.87825034303093
scalar Network.dyn_peer[22] 	lookupHopsSig:mean 	3.1428571428571
scalar Network.dyn_peer[23] 	lookupTimeSig:mean 	0.3205298013245
scalar Network.dyn_peer[23] 	lookupStabilitySig:mean 	0.88565429821857
scalar Network.dyn_peer[23] 	lookupHopsSig:mean 	2.4172185430464
scalar Network.dyn_peer[24] 	lookupTimeSig:mean 	0.37163120567376
scalar Network.dyn_peer[24] 	lookupStabilitySig:mean 	0.86535997338699
scalar Network.dyn_peer[24] 	lookupHopsSig:mean 	2.9432624113475
scalar Network.dyn_peer[25] 	lookupTimeSig:mean 	0.36515151515152
scalar Network.dyn_peer[25] 	lookupStabilitySig:mean 	0.86280661220239
scalar Network.dyn_peer[25] 	lookupHopsSig:mean 	2.8939393939394
scalar Network.dyn_peer[26] 	lookupTimeSig:mean 	0.33333333333333
scalar Network.dyn_peer[26] 	lookupStabilitySig:mean 	0.83741448307911
scalar Network.dyn_peer[26] 	lookupHopsSig:mean 	2.505376344086
scalar Network.dyn_peer[27] 	lookupTimeSig:mean 	0.33684210526316
scalar Network.dyn_peer[27] 	lookupStabilitySig:mean 	0.86016428826335
scalar Network.dyn_peer[27] 	lookupHopsSig:mean 	2.609022556391
scalar Network.dyn_peer[28] 	lookupTimeSig:mean 	0.3487012987013
scalar Network.dyn_peer[28] 	lookupStabilitySig:mean 	0.88861828975912
scalar Network.dyn_peer[28] 	lookupHopsSig:mean 	2.6948051948052
scalar Network.dyn_peer[29] 	lookupTimeSig:mean 	0.38424657534247
scalar Network.dyn_peer[29] 	lookupStabilitySig:mean 	0.86788736995667
scalar Network.dyn_peer[29] 	lookupHopsSig:mean 	3.0616438356164
scalar Network.dyn_peer[30] 	lookupTimeSig:mean 	0.37631578947368
scalar Network.dyn_peer[30] 	lookupStabilitySig:mean 	0.87096882286776
scalar Network.dyn_peer[30] 	lookupHopsSig:mean 	2.9736842105263
scalar Network.dyn_peer[31] 	lookupTimeSig:mean 	0.39893048128342
scalar Network.dyn_peer[31] 	lookupStabilitySig:mean 	0.89212767165254
scalar Network.dyn_peer[31] 	lookupHopsSig:mean 	3.1657754010695
