version 2
run Stability-67-20130524-20:23:05-3483
attr configname Stability
attr datetime 20130524-20:23:05
attr experiment Stability
attr inifile omnetpp.ini
attr iterationvars $0=1e0
attr iterationvars2 "$0=1e0, $repetition=7"
attr measurement $0=1e0
attr network Network
attr processid 3483
attr repetition 7
attr replication #7
attr resultdir results
attr runnumber 67
attr seedset 67

scalar Network.dyn_peer[0] 	lookupTimeSig:mean 	0.39166666666667
scalar Network.dyn_peer[0] 	lookupStabilitySig:mean 	0.74390811068006
scalar Network.dyn_peer[0] 	lookupHopsSig:mean 	3.1833333333333
scalar Network.dyn_peer[1] 	lookupTimeSig:mean 	0.41428571428571
scalar Network.dyn_peer[1] 	lookupStabilitySig:mean 	0.76225692918524
scalar Network.dyn_peer[1] 	lookupHopsSig:mean 	3.3714285714286
scalar Network.dyn_peer[2] 	lookupTimeSig:mean 	0.40625
scalar Network.dyn_peer[2] 	lookupStabilitySig:mean 	0.77177929135764
scalar Network.dyn_peer[2] 	lookupHopsSig:mean 	3.2847222222222
scalar Network.dyn_peer[3] 	lookupTimeSig:mean 	0.3921875
scalar Network.dyn_peer[3] 	lookupStabilitySig:mean 	0.75173722965701
scalar Network.dyn_peer[3] 	lookupHopsSig:mean 	3.171875
scalar Network.dyn_peer[4] 	lookupTimeSig:mean 	0.41048951048951
scalar Network.dyn_peer[4] 	lookupStabilitySig:mean 	0.76267914810068
scalar Network.dyn_peer[4] 	lookupHopsSig:mean 	3.3356643356643
scalar Network.dyn_peer[5] 	lookupTimeSig:mean 	0.43357142857143
scalar Network.dyn_peer[5] 	lookupStabilitySig:mean 	0.7561462001875
scalar Network.dyn_peer[5] 	lookupHopsSig:mean 	3.5642857142857
scalar Network.dyn_peer[6] 	lookupTimeSig:mean 	0.41791044776119
scalar Network.dyn_peer[6] 	lookupStabilitySig:mean 	0.75045988886659
scalar Network.dyn_peer[6] 	lookupHopsSig:mean 	3.4179104477612
scalar Network.dyn_peer[7] 	lookupTimeSig:mean 	0.42301587301587
scalar Network.dyn_peer[7] 	lookupStabilitySig:mean 	0.738337293829
scalar Network.dyn_peer[7] 	lookupHopsSig:mean 	3.484126984127
scalar Network.dyn_peer[8] 	lookupTimeSig:mean 	0.40583941605839
scalar Network.dyn_peer[8] 	lookupStabilitySig:mean 	0.76047799834152
scalar Network.dyn_peer[8] 	lookupHopsSig:mean 	3.2919708029197
scalar Network.dyn_peer[9] 	lookupTimeSig:mean 	0.41041666666667
scalar Network.dyn_peer[9] 	lookupStabilitySig:mean 	0.76796614965941
scalar Network.dyn_peer[9] 	lookupHopsSig:mean 	3.3263888888889
scalar Network.dyn_peer[10] 	lookupTimeSig:mean 	0.40866666666667
scalar Network.dyn_peer[10] 	lookupStabilitySig:mean 	0.77225178970645
scalar Network.dyn_peer[10] 	lookupHopsSig:mean 	3.3
scalar Network.dyn_peer[11] 	lookupTimeSig:mean 	0.43492063492064
scalar Network.dyn_peer[11] 	lookupStabilitySig:mean 	0.74412907359915
scalar Network.dyn_peer[11] 	lookupHopsSig:mean 	3.6031746031746
scalar Network.dyn_peer[12] 	lookupTimeSig:mean 	0.42740740740741
scalar Network.dyn_peer[12] 	lookupStabilitySig:mean 	0.7555802098165
scalar Network.dyn_peer[12] 	lookupHopsSig:mean 	3.5111111111111
scalar Network.dyn_peer[13] 	lookupTimeSig:mean 	0.42573529411765
scalar Network.dyn_peer[13] 	lookupStabilitySig:mean 	0.7509587468059
scalar Network.dyn_peer[13] 	lookupHopsSig:mean 	3.4926470588235
scalar Network.dyn_peer[14] 	lookupTimeSig:mean 	0.4013986013986
scalar Network.dyn_peer[14] 	lookupStabilitySig:mean 	0.76756478146604
scalar Network.dyn_peer[14] 	lookupHopsSig:mean 	3.2377622377622
scalar Network.dyn_peer[15] 	lookupTimeSig:mean 	0.4013698630137
scalar Network.dyn_peer[15] 	lookupStabilitySig:mean 	0.76395790076062
scalar Network.dyn_peer[15] 	lookupHopsSig:mean 	3.2397260273973
scalar Network.dyn_peer[16] 	lookupTimeSig:mean 	0.44966887417219
scalar Network.dyn_peer[16] 	lookupStabilitySig:mean 	0.76035039668397
scalar Network.dyn_peer[16] 	lookupHopsSig:mean 	3.7086092715232
scalar Network.dyn_peer[17] 	lookupTimeSig:mean 	0.40676691729323
scalar Network.dyn_peer[17] 	lookupStabilitySig:mean 	0.7497042679557
scalar Network.dyn_peer[17] 	lookupHopsSig:mean 	3.3082706766917
scalar Network.dyn_peer[18] 	lookupTimeSig:mean 	0.41654676258993
scalar Network.dyn_peer[18] 	lookupStabilitySig:mean 	0.75527007497257
scalar Network.dyn_peer[18] 	lookupHopsSig:mean 	3.4028776978417
scalar Network.dyn_peer[19] 	lookupTimeSig:mean 	0.39586206896552
scalar Network.dyn_peer[19] 	lookupStabilitySig:mean 	0.77459713652216
scalar Network.dyn_peer[19] 	lookupHopsSig:mean 	3.1793103448276
scalar Network.dyn_peer[20] 	lookupTimeSig:mean 	0.42677165354331
scalar Network.dyn_peer[20] 	lookupStabilitySig:mean 	0.73892898939726
scalar Network.dyn_peer[20] 	lookupHopsSig:mean 	3.5196850393701
scalar Network.dyn_peer[21] 	lookupTimeSig:mean 	0.39710144927536
scalar Network.dyn_peer[21] 	lookupStabilitySig:mean 	0.75647910388753
scalar Network.dyn_peer[21] 	lookupHopsSig:mean 	3.2028985507246
scalar Network.dyn_peer[22] 	lookupTimeSig:mean 	0.41703703703704
scalar Network.dyn_peer[22] 	lookupStabilitySig:mean 	0.74933772579663
scalar Network.dyn_peer[22] 	lookupHopsSig:mean 	3.4074074074074
scalar Network.dyn_peer[23] 	lookupTimeSig:mean 	0.41833333333333
scalar Network.dyn_peer[23] 	lookupStabilitySig:mean 	0.73661975193148
scalar Network.dyn_peer[23] 	lookupHopsSig:mean 	3.45
scalar Network.dyn_peer[24] 	lookupTimeSig:mean 	0.41
scalar Network.dyn_peer[24] 	lookupStabilitySig:mean 	0.75901925925698
scalar Network.dyn_peer[24] 	lookupHopsSig:mean 	3.3285714285714
scalar Network.dyn_peer[25] 	lookupTimeSig:mean 	0.41666666666667
scalar Network.dyn_peer[25] 	lookupStabilitySig:mean 	0.76968803034267
scalar Network.dyn_peer[25] 	lookupHopsSig:mean 	3.3888888888889
scalar Network.dyn_peer[26] 	lookupTimeSig:mean 	0.42138364779874
scalar Network.dyn_peer[26] 	lookupStabilitySig:mean 	0.76897310421058
scalar Network.dyn_peer[26] 	lookupHopsSig:mean 	3.4150943396226
scalar Network.dyn_peer[27] 	lookupTimeSig:mean 	0.41525423728814
scalar Network.dyn_peer[27] 	lookupStabilitySig:mean 	0.73639725345992
scalar Network.dyn_peer[27] 	lookupHopsSig:mean 	3.4237288135593
scalar Network.dyn_peer[28] 	lookupTimeSig:mean 	0.41439393939394
scalar Network.dyn_peer[28] 	lookupStabilitySig:mean 	0.74730574788356
scalar Network.dyn_peer[28] 	lookupHopsSig:mean 	3.3939393939394
scalar Network.dyn_peer[29] 	lookupTimeSig:mean 	0.42894736842105
scalar Network.dyn_peer[29] 	lookupStabilitySig:mean 	0.76511276842977
scalar Network.dyn_peer[29] 	lookupHopsSig:mean 	3.5
scalar Network.dyn_peer[30] 	lookupTimeSig:mean 	0.42569444444444
scalar Network.dyn_peer[30] 	lookupStabilitySig:mean 	0.76317738935662
scalar Network.dyn_peer[30] 	lookupHopsSig:mean 	3.4791666666667
scalar Network.dyn_peer[31] 	lookupTimeSig:mean 	0.3985401459854
scalar Network.dyn_peer[31] 	lookupStabilitySig:mean 	0.75998189447135
scalar Network.dyn_peer[31] 	lookupHopsSig:mean 	3.2189781021898
