version 2
run Stability-89-20130524-20:23:44-3483
attr configname Stability
attr datetime 20130524-20:23:44
attr experiment Stability
attr inifile omnetpp.ini
attr iterationvars $0=1e-2
attr iterationvars2 "$0=1e-2, $repetition=9"
attr measurement $0=1e-2
attr network Network
attr processid 3483
attr repetition 9
attr replication #9
attr resultdir results
attr runnumber 89
attr seedset 89

scalar Network.dyn_peer[0] 	lookupTimeSig:mean 	0.37118644067797
scalar Network.dyn_peer[0] 	lookupStabilitySig:mean 	0.7393830453314
scalar Network.dyn_peer[0] 	lookupHopsSig:mean 	3.0677966101695
scalar Network.dyn_peer[1] 	lookupTimeSig:mean 	0.396875
scalar Network.dyn_peer[1] 	lookupStabilitySig:mean 	0.74678488622885
scalar Network.dyn_peer[1] 	lookupHopsSig:mean 	3.2734375
scalar Network.dyn_peer[2] 	lookupTimeSig:mean 	0.42805755395683
scalar Network.dyn_peer[2] 	lookupStabilitySig:mean 	0.74946163672445
scalar Network.dyn_peer[2] 	lookupHopsSig:mean 	3.5971223021583
scalar Network.dyn_peer[3] 	lookupTimeSig:mean 	0.36470588235294
scalar Network.dyn_peer[3] 	lookupStabilitySig:mean 	0.7668010984164
scalar Network.dyn_peer[3] 	lookupHopsSig:mean 	2.9411764705882
scalar Network.dyn_peer[4] 	lookupTimeSig:mean 	0.40610687022901
scalar Network.dyn_peer[4] 	lookupStabilitySig:mean 	0.7493193443893
scalar Network.dyn_peer[4] 	lookupHopsSig:mean 	3.3587786259542
scalar Network.dyn_peer[5] 	lookupTimeSig:mean 	0.39935064935065
scalar Network.dyn_peer[5] 	lookupStabilitySig:mean 	0.76480167945726
scalar Network.dyn_peer[5] 	lookupHopsSig:mean 	3.2467532467532
scalar Network.dyn_peer[6] 	lookupTimeSig:mean 	0.26774193548387
scalar Network.dyn_peer[6] 	lookupStabilitySig:mean 	0.74926889729836
scalar Network.dyn_peer[6] 	lookupHopsSig:mean 	2.1209677419355
scalar Network.dyn_peer[7] 	lookupTimeSig:mean 	0.37575757575758
scalar Network.dyn_peer[7] 	lookupStabilitySig:mean 	0.75855659287084
scalar Network.dyn_peer[7] 	lookupHopsSig:mean 	3.0681818181818
scalar Network.dyn_peer[8] 	lookupTimeSig:mean 	0.4319018404908
scalar Network.dyn_peer[8] 	lookupStabilitySig:mean 	0.76460124321419
scalar Network.dyn_peer[8] 	lookupHopsSig:mean 	3.5889570552147
scalar Network.dyn_peer[9] 	lookupTimeSig:mean 	0.37943925233645
scalar Network.dyn_peer[9] 	lookupStabilitySig:mean 	0.72427565670598
scalar Network.dyn_peer[9] 	lookupHopsSig:mean 	3.1682242990654
scalar Network.dyn_peer[10] 	lookupTimeSig:mean 	0.38396946564886
scalar Network.dyn_peer[10] 	lookupStabilitySig:mean 	0.75153111633738
scalar Network.dyn_peer[10] 	lookupHopsSig:mean 	3.1526717557252
scalar Network.dyn_peer[11] 	lookupTimeSig:mean 	0.40671641791045
scalar Network.dyn_peer[11] 	lookupStabilitySig:mean 	0.74688121198273
scalar Network.dyn_peer[11] 	lookupHopsSig:mean 	3.3582089552239
scalar Network.dyn_peer[12] 	lookupTimeSig:mean 	0.42631578947368
scalar Network.dyn_peer[12] 	lookupStabilitySig:mean 	0.73665442071239
scalar Network.dyn_peer[12] 	lookupHopsSig:mean 	3.5714285714286
scalar Network.dyn_peer[13] 	lookupTimeSig:mean 	0.39407407407407
scalar Network.dyn_peer[13] 	lookupStabilitySig:mean 	0.74759775929981
scalar Network.dyn_peer[13] 	lookupHopsSig:mean 	3.2666666666667
scalar Network.dyn_peer[14] 	lookupTimeSig:mean 	0.41298701298701
scalar Network.dyn_peer[14] 	lookupStabilitySig:mean 	0.76694088120788
scalar Network.dyn_peer[14] 	lookupHopsSig:mean 	3.3831168831169
scalar Network.dyn_peer[15] 	lookupTimeSig:mean 	0.25934959349593
scalar Network.dyn_peer[15] 	lookupStabilitySig:mean 	0.75589841422511
scalar Network.dyn_peer[15] 	lookupHopsSig:mean 	2.0406504065041
scalar Network.dyn_peer[16] 	lookupTimeSig:mean 	0.39556962025316
scalar Network.dyn_peer[16] 	lookupStabilitySig:mean 	0.76491872189401
scalar Network.dyn_peer[16] 	lookupHopsSig:mean 	3.2341772151899
scalar Network.dyn_peer[17] 	lookupTimeSig:mean 	0.39777777777778
scalar Network.dyn_peer[17] 	lookupStabilitySig:mean 	0.74858271635517
scalar Network.dyn_peer[17] 	lookupHopsSig:mean 	3.2740740740741
scalar Network.dyn_peer[18] 	lookupTimeSig:mean 	0.40072463768116
scalar Network.dyn_peer[18] 	lookupStabilitySig:mean 	0.75339191317882
scalar Network.dyn_peer[18] 	lookupHopsSig:mean 	3.3260869565217
scalar Network.dyn_peer[19] 	lookupTimeSig:mean 	0.37190082644628
scalar Network.dyn_peer[19] 	lookupStabilitySig:mean 	0.74805058997648
scalar Network.dyn_peer[19] 	lookupHopsSig:mean 	3.0578512396694
scalar Network.dyn_peer[20] 	lookupTimeSig:mean 	0.38582677165354
scalar Network.dyn_peer[20] 	lookupStabilitySig:mean 	0.7518174037132
scalar Network.dyn_peer[20] 	lookupHopsSig:mean 	3.1574803149606
scalar Network.dyn_peer[21] 	lookupTimeSig:mean 	0.43793103448276
scalar Network.dyn_peer[21] 	lookupStabilitySig:mean 	0.72052419394383
scalar Network.dyn_peer[21] 	lookupHopsSig:mean 	3.6896551724138
scalar Network.dyn_peer[22] 	lookupTimeSig:mean 	0.41627906976744
scalar Network.dyn_peer[22] 	lookupStabilitySig:mean 	0.73720180607119
scalar Network.dyn_peer[22] 	lookupHopsSig:mean 	3.4651162790698
scalar Network.dyn_peer[23] 	lookupTimeSig:mean 	0.28070175438596
scalar Network.dyn_peer[23] 	lookupStabilitySig:mean 	0.72761828713773
scalar Network.dyn_peer[23] 	lookupHopsSig:mean 	2.280701754386
scalar Network.dyn_peer[24] 	lookupTimeSig:mean 	0.37076923076923
scalar Network.dyn_peer[24] 	lookupStabilitySig:mean 	0.75159109008427
scalar Network.dyn_peer[24] 	lookupHopsSig:mean 	3.0307692307692
scalar Network.dyn_peer[25] 	lookupTimeSig:mean 	0.40916666666667
scalar Network.dyn_peer[25] 	lookupStabilitySig:mean 	0.73496970071768
scalar Network.dyn_peer[25] 	lookupHopsSig:mean 	3.45
scalar Network.dyn_peer[26] 	lookupTimeSig:mean 	0.27348484848485
scalar Network.dyn_peer[26] 	lookupStabilitySig:mean 	0.74917355224942
scalar Network.dyn_peer[26] 	lookupHopsSig:mean 	2.1515151515152
scalar Network.dyn_peer[27] 	lookupTimeSig:mean 	0.38560606060606
scalar Network.dyn_peer[27] 	lookupStabilitySig:mean 	0.75656386953073
scalar Network.dyn_peer[27] 	lookupHopsSig:mean 	3.1969696969697
scalar Network.dyn_peer[28] 	lookupTimeSig:mean 	0.37874015748031
scalar Network.dyn_peer[28] 	lookupStabilitySig:mean 	0.74997094126902
scalar Network.dyn_peer[28] 	lookupHopsSig:mean 	3.0866141732283
scalar Network.dyn_peer[29] 	lookupTimeSig:mean 	0.39178082191781
scalar Network.dyn_peer[29] 	lookupStabilitySig:mean 	0.75834351314921
scalar Network.dyn_peer[29] 	lookupHopsSig:mean 	3.2191780821918
scalar Network.dyn_peer[30] 	lookupTimeSig:mean 	0.39571428571429
scalar Network.dyn_peer[30] 	lookupStabilitySig:mean 	0.75850396270731
scalar Network.dyn_peer[30] 	lookupHopsSig:mean 	3.2142857142857
scalar Network.dyn_peer[31] 	lookupTimeSig:mean 	0.40252100840336
scalar Network.dyn_peer[31] 	lookupStabilitySig:mean 	0.73247309436067
scalar Network.dyn_peer[31] 	lookupHopsSig:mean 	3.3865546218487
