version 2
run Stability-71-20130524-20:23:13-3483
attr configname Stability
attr datetime 20130524-20:23:13
attr experiment Stability
attr inifile omnetpp.ini
attr iterationvars $0=1e-1
attr iterationvars2 "$0=1e-1, $repetition=1"
attr measurement $0=1e-1
attr network Network
attr processid 3483
attr repetition 1
attr replication #1
attr resultdir results
attr runnumber 71
attr seedset 71

scalar Network.dyn_peer[0] 	lookupTimeSig:mean 	0.41707317073171
scalar Network.dyn_peer[0] 	lookupStabilitySig:mean 	0.73368457041499
scalar Network.dyn_peer[0] 	lookupHopsSig:mean 	3.4308943089431
scalar Network.dyn_peer[1] 	lookupTimeSig:mean 	0.46197183098592
scalar Network.dyn_peer[1] 	lookupStabilitySig:mean 	0.74466049916465
scalar Network.dyn_peer[1] 	lookupHopsSig:mean 	3.8450704225352
scalar Network.dyn_peer[2] 	lookupTimeSig:mean 	0.4702479338843
scalar Network.dyn_peer[2] 	lookupStabilitySig:mean 	0.71670964392564
scalar Network.dyn_peer[2] 	lookupHopsSig:mean 	3.9752066115702
scalar Network.dyn_peer[3] 	lookupTimeSig:mean 	0.44236111111111
scalar Network.dyn_peer[3] 	lookupStabilitySig:mean 	0.74286755906521
scalar Network.dyn_peer[3] 	lookupHopsSig:mean 	3.6666666666667
scalar Network.dyn_peer[4] 	lookupTimeSig:mean 	0.45496183206107
scalar Network.dyn_peer[4] 	lookupStabilitySig:mean 	0.72833266865661
scalar Network.dyn_peer[4] 	lookupHopsSig:mean 	3.8091603053435
scalar Network.dyn_peer[5] 	lookupTimeSig:mean 	0.41190476190476
scalar Network.dyn_peer[5] 	lookupStabilitySig:mean 	0.73513087179394
scalar Network.dyn_peer[5] 	lookupHopsSig:mean 	3.3888888888889
scalar Network.dyn_peer[6] 	lookupTimeSig:mean 	0.4351724137931
scalar Network.dyn_peer[6] 	lookupStabilitySig:mean 	0.74926391837412
scalar Network.dyn_peer[6] 	lookupHopsSig:mean 	3.5793103448276
scalar Network.dyn_peer[7] 	lookupTimeSig:mean 	0.3984962406015
scalar Network.dyn_peer[7] 	lookupStabilitySig:mean 	0.76657453888005
scalar Network.dyn_peer[7] 	lookupHopsSig:mean 	3.2255639097744
scalar Network.dyn_peer[8] 	lookupTimeSig:mean 	0.45106382978723
scalar Network.dyn_peer[8] 	lookupStabilitySig:mean 	0.74616892849828
scalar Network.dyn_peer[8] 	lookupHopsSig:mean 	3.7446808510638
scalar Network.dyn_peer[9] 	lookupTimeSig:mean 	0.4234375
scalar Network.dyn_peer[9] 	lookupStabilitySig:mean 	0.74410645307216
scalar Network.dyn_peer[9] 	lookupHopsSig:mean 	3.4921875
scalar Network.dyn_peer[10] 	lookupTimeSig:mean 	0.46408450704225
scalar Network.dyn_peer[10] 	lookupStabilitySig:mean 	0.73916888862691
scalar Network.dyn_peer[10] 	lookupHopsSig:mean 	3.8732394366197
scalar Network.dyn_peer[11] 	lookupTimeSig:mean 	0.44411764705882
scalar Network.dyn_peer[11] 	lookupStabilitySig:mean 	0.73547802343691
scalar Network.dyn_peer[11] 	lookupHopsSig:mean 	3.6764705882353
scalar Network.dyn_peer[12] 	lookupTimeSig:mean 	0.42238805970149
scalar Network.dyn_peer[12] 	lookupStabilitySig:mean 	0.74180722603602
scalar Network.dyn_peer[12] 	lookupHopsSig:mean 	3.4701492537313
scalar Network.dyn_peer[13] 	lookupTimeSig:mean 	0.42429906542056
scalar Network.dyn_peer[13] 	lookupStabilitySig:mean 	0.70372064589201
scalar Network.dyn_peer[13] 	lookupHopsSig:mean 	3.5420560747664
scalar Network.dyn_peer[14] 	lookupTimeSig:mean 	0.46818181818182
scalar Network.dyn_peer[14] 	lookupStabilitySig:mean 	0.73248261478588
scalar Network.dyn_peer[14] 	lookupHopsSig:mean 	3.9242424242424
scalar Network.dyn_peer[15] 	lookupTimeSig:mean 	0.40373134328358
scalar Network.dyn_peer[15] 	lookupStabilitySig:mean 	0.75563040478572
scalar Network.dyn_peer[15] 	lookupHopsSig:mean 	3.2761194029851
scalar Network.dyn_peer[16] 	lookupTimeSig:mean 	0.43566433566434
scalar Network.dyn_peer[16] 	lookupStabilitySig:mean 	0.76408917508967
scalar Network.dyn_peer[16] 	lookupHopsSig:mean 	3.5804195804196
scalar Network.dyn_peer[17] 	lookupTimeSig:mean 	0.45669291338583
scalar Network.dyn_peer[17] 	lookupStabilitySig:mean 	0.71592815877415
scalar Network.dyn_peer[17] 	lookupHopsSig:mean 	3.8346456692913
scalar Network.dyn_peer[18] 	lookupTimeSig:mean 	0.44384615384615
scalar Network.dyn_peer[18] 	lookupStabilitySig:mean 	0.73015073898893
scalar Network.dyn_peer[18] 	lookupHopsSig:mean 	3.6846153846154
scalar Network.dyn_peer[19] 	lookupTimeSig:mean 	0.41379310344828
scalar Network.dyn_peer[19] 	lookupStabilitySig:mean 	0.76458451168547
scalar Network.dyn_peer[19] 	lookupHopsSig:mean 	3.3586206896552
scalar Network.dyn_peer[20] 	lookupTimeSig:mean 	0.43138686131387
scalar Network.dyn_peer[20] 	lookupStabilitySig:mean 	0.74776509224716
scalar Network.dyn_peer[20] 	lookupHopsSig:mean 	3.5474452554745
scalar Network.dyn_peer[21] 	lookupTimeSig:mean 	0.44662162162162
scalar Network.dyn_peer[21] 	lookupStabilitySig:mean 	0.74262474643419
scalar Network.dyn_peer[21] 	lookupHopsSig:mean 	3.6891891891892
scalar Network.dyn_peer[22] 	lookupTimeSig:mean 	0.43008130081301
scalar Network.dyn_peer[22] 	lookupStabilitySig:mean 	0.71831051013395
scalar Network.dyn_peer[22] 	lookupHopsSig:mean 	3.5691056910569
scalar Network.dyn_peer[23] 	lookupTimeSig:mean 	0.45845070422535
scalar Network.dyn_peer[23] 	lookupStabilitySig:mean 	0.73700718391477
scalar Network.dyn_peer[23] 	lookupHopsSig:mean 	3.8239436619718
scalar Network.dyn_peer[24] 	lookupTimeSig:mean 	0.43185185185185
scalar Network.dyn_peer[24] 	lookupStabilitySig:mean 	0.74058590728652
scalar Network.dyn_peer[24] 	lookupHopsSig:mean 	3.5703703703704
scalar Network.dyn_peer[25] 	lookupTimeSig:mean 	0.42638888888889
scalar Network.dyn_peer[25] 	lookupStabilitySig:mean 	0.75046245320441
scalar Network.dyn_peer[25] 	lookupHopsSig:mean 	3.5069444444444
scalar Network.dyn_peer[26] 	lookupTimeSig:mean 	0.4634328358209
scalar Network.dyn_peer[26] 	lookupStabilitySig:mean 	0.72401738101477
scalar Network.dyn_peer[26] 	lookupHopsSig:mean 	3.8805970149254
scalar Network.dyn_peer[27] 	lookupTimeSig:mean 	0.4412213740458
scalar Network.dyn_peer[27] 	lookupStabilitySig:mean 	0.74015600679314
scalar Network.dyn_peer[27] 	lookupHopsSig:mean 	3.6641221374046
scalar Network.dyn_peer[28] 	lookupTimeSig:mean 	0.44710144927536
scalar Network.dyn_peer[28] 	lookupStabilitySig:mean 	0.74579586750031
scalar Network.dyn_peer[28] 	lookupHopsSig:mean 	3.7028985507246
scalar Network.dyn_peer[29] 	lookupTimeSig:mean 	0.43515625
scalar Network.dyn_peer[29] 	lookupStabilitySig:mean 	0.74155714899825
scalar Network.dyn_peer[29] 	lookupHopsSig:mean 	3.609375
scalar Network.dyn_peer[30] 	lookupTimeSig:mean 	0.43941605839416
scalar Network.dyn_peer[30] 	lookupStabilitySig:mean 	0.75109829118706
scalar Network.dyn_peer[30] 	lookupHopsSig:mean 	3.6277372262774
scalar Network.dyn_peer[31] 	lookupTimeSig:mean 	0.48103448275862
scalar Network.dyn_peer[31] 	lookupStabilitySig:mean 	0.70389450969303
scalar Network.dyn_peer[31] 	lookupHopsSig:mean 	4.0948275862069
