version 2
run Stability-55-20130524-20:22:44-3483
attr configname Stability
attr datetime 20130524-20:22:44
attr experiment Stability
attr inifile omnetpp.ini
attr iterationvars $0=1e1
attr iterationvars2 "$0=1e1, $repetition=5"
attr measurement $0=1e1
attr network Network
attr processid 3483
attr repetition 5
attr replication #5
attr resultdir results
attr runnumber 55
attr seedset 55

scalar Network.dyn_peer[0] 	lookupTimeSig:mean 	0.4048275862069
scalar Network.dyn_peer[0] 	lookupStabilitySig:mean 	0.77191873530632
scalar Network.dyn_peer[0] 	lookupHopsSig:mean 	3.2689655172414
scalar Network.dyn_peer[1] 	lookupTimeSig:mean 	0.38978102189781
scalar Network.dyn_peer[1] 	lookupStabilitySig:mean 	0.76686802713105
scalar Network.dyn_peer[1] 	lookupHopsSig:mean 	3.1313868613139
scalar Network.dyn_peer[2] 	lookupTimeSig:mean 	0.40979020979021
scalar Network.dyn_peer[2] 	lookupStabilitySig:mean 	0.7755660991204
scalar Network.dyn_peer[2] 	lookupHopsSig:mean 	3.3216783216783
scalar Network.dyn_peer[3] 	lookupTimeSig:mean 	0.39513888888889
scalar Network.dyn_peer[3] 	lookupStabilitySig:mean 	0.78180116138214
scalar Network.dyn_peer[3] 	lookupHopsSig:mean 	3.1736111111111
scalar Network.dyn_peer[4] 	lookupTimeSig:mean 	0.40081300813008
scalar Network.dyn_peer[4] 	lookupStabilitySig:mean 	0.76270824849484
scalar Network.dyn_peer[4] 	lookupHopsSig:mean 	3.2682926829268
scalar Network.dyn_peer[5] 	lookupTimeSig:mean 	0.40612244897959
scalar Network.dyn_peer[5] 	lookupStabilitySig:mean 	0.78414020234985
scalar Network.dyn_peer[5] 	lookupHopsSig:mean 	3.2789115646259
scalar Network.dyn_peer[6] 	lookupTimeSig:mean 	0.4
scalar Network.dyn_peer[6] 	lookupStabilitySig:mean 	0.78403264092766
scalar Network.dyn_peer[6] 	lookupHopsSig:mean 	3.2191780821918
scalar Network.dyn_peer[7] 	lookupTimeSig:mean 	0.4
scalar Network.dyn_peer[7] 	lookupStabilitySig:mean 	0.7665265343131
scalar Network.dyn_peer[7] 	lookupHopsSig:mean 	3.2406015037594
scalar Network.dyn_peer[8] 	lookupTimeSig:mean 	0.39927536231884
scalar Network.dyn_peer[8] 	lookupStabilitySig:mean 	0.77256638254376
scalar Network.dyn_peer[8] 	lookupHopsSig:mean 	3.2246376811594
scalar Network.dyn_peer[9] 	lookupTimeSig:mean 	0.39271523178808
scalar Network.dyn_peer[9] 	lookupStabilitySig:mean 	0.78816626286319
scalar Network.dyn_peer[9] 	lookupHopsSig:mean 	3.1390728476821
scalar Network.dyn_peer[10] 	lookupTimeSig:mean 	0.40992366412214
scalar Network.dyn_peer[10] 	lookupStabilitySig:mean 	0.7616626731767
scalar Network.dyn_peer[10] 	lookupHopsSig:mean 	3.3435114503817
scalar Network.dyn_peer[11] 	lookupTimeSig:mean 	0.42983870967742
scalar Network.dyn_peer[11] 	lookupStabilitySig:mean 	0.74305676267813
scalar Network.dyn_peer[11] 	lookupHopsSig:mean 	3.5564516129032
scalar Network.dyn_peer[12] 	lookupTimeSig:mean 	0.4
scalar Network.dyn_peer[12] 	lookupStabilitySig:mean 	0.76937429765438
scalar Network.dyn_peer[12] 	lookupHopsSig:mean 	3.2269503546099
scalar Network.dyn_peer[13] 	lookupTimeSig:mean 	0.3768115942029
scalar Network.dyn_peer[13] 	lookupStabilitySig:mean 	0.77277251666385
scalar Network.dyn_peer[13] 	lookupHopsSig:mean 	3
scalar Network.dyn_peer[14] 	lookupTimeSig:mean 	0.36532258064516
scalar Network.dyn_peer[14] 	lookupStabilitySig:mean 	0.76683106887785
scalar Network.dyn_peer[14] 	lookupHopsSig:mean 	2.9112903225806
scalar Network.dyn_peer[15] 	lookupTimeSig:mean 	0.4216
scalar Network.dyn_peer[15] 	lookupStabilitySig:mean 	0.74674984163046
scalar Network.dyn_peer[15] 	lookupHopsSig:mean 	3.472
scalar Network.dyn_peer[16] 	lookupTimeSig:mean 	0.425
scalar Network.dyn_peer[16] 	lookupStabilitySig:mean 	0.74609176175048
scalar Network.dyn_peer[16] 	lookupHopsSig:mean 	3.5166666666667
scalar Network.dyn_peer[17] 	lookupTimeSig:mean 	0.3979020979021
scalar Network.dyn_peer[17] 	lookupStabilitySig:mean 	0.77492621178915
scalar Network.dyn_peer[17] 	lookupHopsSig:mean 	3.2027972027972
scalar Network.dyn_peer[18] 	lookupTimeSig:mean 	0.40375939849624
scalar Network.dyn_peer[18] 	lookupStabilitySig:mean 	0.76414045122893
scalar Network.dyn_peer[18] 	lookupHopsSig:mean 	3.2781954887218
scalar Network.dyn_peer[19] 	lookupTimeSig:mean 	0.37655172413793
scalar Network.dyn_peer[19] 	lookupStabilitySig:mean 	0.78512887122302
scalar Network.dyn_peer[19] 	lookupHopsSig:mean 	2.9862068965517
scalar Network.dyn_peer[20] 	lookupTimeSig:mean 	0.3856
scalar Network.dyn_peer[20] 	lookupStabilitySig:mean 	0.75872010692954
scalar Network.dyn_peer[20] 	lookupHopsSig:mean 	3.112
scalar Network.dyn_peer[21] 	lookupTimeSig:mean 	0.4
scalar Network.dyn_peer[21] 	lookupStabilitySig:mean 	0.78529987034486
scalar Network.dyn_peer[21] 	lookupHopsSig:mean 	3.2105263157895
scalar Network.dyn_peer[22] 	lookupTimeSig:mean 	0.41677852348993
scalar Network.dyn_peer[22] 	lookupStabilitySig:mean 	0.78394788587403
scalar Network.dyn_peer[22] 	lookupHopsSig:mean 	3.3825503355705
scalar Network.dyn_peer[23] 	lookupTimeSig:mean 	0.4172131147541
scalar Network.dyn_peer[23] 	lookupStabilitySig:mean 	0.74159770026864
scalar Network.dyn_peer[23] 	lookupHopsSig:mean 	3.4344262295082
scalar Network.dyn_peer[24] 	lookupTimeSig:mean 	0.41417322834646
scalar Network.dyn_peer[24] 	lookupStabilitySig:mean 	0.7581465750874
scalar Network.dyn_peer[24] 	lookupHopsSig:mean 	3.3937007874016
scalar Network.dyn_peer[25] 	lookupTimeSig:mean 	0.39160305343511
scalar Network.dyn_peer[25] 	lookupStabilitySig:mean 	0.76770018157727
scalar Network.dyn_peer[25] 	lookupHopsSig:mean 	3.1603053435115
scalar Network.dyn_peer[26] 	lookupTimeSig:mean 	0.41439393939394
scalar Network.dyn_peer[26] 	lookupStabilitySig:mean 	0.76227135841989
scalar Network.dyn_peer[26] 	lookupHopsSig:mean 	3.3863636363636
scalar Network.dyn_peer[27] 	lookupTimeSig:mean 	0.41363636363636
scalar Network.dyn_peer[27] 	lookupStabilitySig:mean 	0.76185624624574
scalar Network.dyn_peer[27] 	lookupHopsSig:mean 	3.3787878787879
scalar Network.dyn_peer[28] 	lookupTimeSig:mean 	0.40526315789474
scalar Network.dyn_peer[28] 	lookupStabilitySig:mean 	0.76427913894107
scalar Network.dyn_peer[28] 	lookupHopsSig:mean 	3.2932330827068
scalar Network.dyn_peer[29] 	lookupTimeSig:mean 	0.4155737704918
scalar Network.dyn_peer[29] 	lookupStabilitySig:mean 	0.74151149473046
scalar Network.dyn_peer[29] 	lookupHopsSig:mean 	3.4180327868852
scalar Network.dyn_peer[30] 	lookupTimeSig:mean 	0.41478873239437
scalar Network.dyn_peer[30] 	lookupStabilitySig:mean 	0.7752975550231
scalar Network.dyn_peer[30] 	lookupHopsSig:mean 	3.3732394366197
scalar Network.dyn_peer[31] 	lookupTimeSig:mean 	0.38196721311475
scalar Network.dyn_peer[31] 	lookupStabilitySig:mean 	0.75797650488246
scalar Network.dyn_peer[31] 	lookupHopsSig:mean 	3.0819672131148
