version 2
run Stability-20-20130524-20:21:30-3483
attr configname Stability
attr datetime 20130524-20:21:30
attr experiment Stability
attr inifile omnetpp.ini
attr iterationvars $0=1e4
attr iterationvars2 "$0=1e4, $repetition=0"
attr measurement $0=1e4
attr network Network
attr processid 3483
attr repetition 0
attr replication #0
attr resultdir results
attr runnumber 20
attr seedset 20

scalar Network.dyn_peer[0] 	lookupTimeSig:mean 	0.25488372093023
scalar Network.dyn_peer[0] 	lookupStabilitySig:mean 	0.8691990136927
scalar Network.dyn_peer[0] 	lookupHopsSig:mean 	1.6976744186047
scalar Network.dyn_peer[1] 	lookupTimeSig:mean 	0.2554347826087
scalar Network.dyn_peer[1] 	lookupStabilitySig:mean 	0.85587321653071
scalar Network.dyn_peer[1] 	lookupHopsSig:mean 	1.7445652173913
scalar Network.dyn_peer[2] 	lookupTimeSig:mean 	0.2421568627451
scalar Network.dyn_peer[2] 	lookupStabilitySig:mean 	0.87846874073148
scalar Network.dyn_peer[2] 	lookupHopsSig:mean 	1.578431372549
scalar Network.dyn_peer[3] 	lookupTimeSig:mean 	0.23619047619048
scalar Network.dyn_peer[3] 	lookupStabilitySig:mean 	0.87622723111085
scalar Network.dyn_peer[3] 	lookupHopsSig:mean 	1.5190476190476
scalar Network.dyn_peer[4] 	lookupTimeSig:mean 	0.2487684729064
scalar Network.dyn_peer[4] 	lookupStabilitySig:mean 	0.87781034303563
scalar Network.dyn_peer[4] 	lookupHopsSig:mean 	1.6453201970443
scalar Network.dyn_peer[5] 	lookupTimeSig:mean 	0.25052631578947
scalar Network.dyn_peer[5] 	lookupStabilitySig:mean 	0.86229647231337
scalar Network.dyn_peer[5] 	lookupHopsSig:mean 	1.6894736842105
scalar Network.dyn_peer[6] 	lookupTimeSig:mean 	0.25674418604651
scalar Network.dyn_peer[6] 	lookupStabilitySig:mean 	0.87440081723901
scalar Network.dyn_peer[6] 	lookupHopsSig:mean 	1.7162790697674
scalar Network.dyn_peer[7] 	lookupTimeSig:mean 	0.24444444444444
scalar Network.dyn_peer[7] 	lookupStabilitySig:mean 	0.86611894139964
scalar Network.dyn_peer[7] 	lookupHopsSig:mean 	1.6161616161616
scalar Network.dyn_peer[8] 	lookupTimeSig:mean 	0.25106382978723
scalar Network.dyn_peer[8] 	lookupStabilitySig:mean 	0.8745849361445
scalar Network.dyn_peer[8] 	lookupHopsSig:mean 	1.6468085106383
scalar Network.dyn_peer[9] 	lookupTimeSig:mean 	0.24108910891089
scalar Network.dyn_peer[9] 	lookupStabilitySig:mean 	0.86832272301954
scalar Network.dyn_peer[9] 	lookupHopsSig:mean 	1.5742574257426
scalar Network.dyn_peer[10] 	lookupTimeSig:mean 	0.23833333333333
scalar Network.dyn_peer[10] 	lookupStabilitySig:mean 	0.87917937257638
scalar Network.dyn_peer[10] 	lookupHopsSig:mean 	1.5611111111111
scalar Network.dyn_peer[11] 	lookupTimeSig:mean 	0.24372093023256
scalar Network.dyn_peer[11] 	lookupStabilitySig:mean 	0.86801537386207
scalar Network.dyn_peer[11] 	lookupHopsSig:mean 	1.6
scalar Network.dyn_peer[12] 	lookupTimeSig:mean 	0.25062761506276
scalar Network.dyn_peer[12] 	lookupStabilitySig:mean 	0.87379546341911
scalar Network.dyn_peer[12] 	lookupHopsSig:mean 	1.6401673640167
scalar Network.dyn_peer[13] 	lookupTimeSig:mean 	0.25539906103286
scalar Network.dyn_peer[13] 	lookupStabilitySig:mean 	0.85875194360603
scalar Network.dyn_peer[13] 	lookupHopsSig:mean 	1.7230046948357
scalar Network.dyn_peer[14] 	lookupTimeSig:mean 	0.26194690265487
scalar Network.dyn_peer[14] 	lookupStabilitySig:mean 	0.86901542457002
scalar Network.dyn_peer[14] 	lookupHopsSig:mean 	1.7610619469027
scalar Network.dyn_peer[15] 	lookupTimeSig:mean 	0.24345794392523
scalar Network.dyn_peer[15] 	lookupStabilitySig:mean 	0.87374093609853
scalar Network.dyn_peer[15] 	lookupHopsSig:mean 	1.588785046729
scalar Network.dyn_peer[16] 	lookupTimeSig:mean 	0.25787037037037
scalar Network.dyn_peer[16] 	lookupStabilitySig:mean 	0.87068048083327
scalar Network.dyn_peer[16] 	lookupHopsSig:mean 	1.7268518518519
scalar Network.dyn_peer[17] 	lookupTimeSig:mean 	0.24653465346535
scalar Network.dyn_peer[17] 	lookupStabilitySig:mean 	0.86305120867668
scalar Network.dyn_peer[17] 	lookupHopsSig:mean 	1.6435643564356
scalar Network.dyn_peer[18] 	lookupTimeSig:mean 	0.24311926605505
scalar Network.dyn_peer[18] 	lookupStabilitySig:mean 	0.8792349401383
scalar Network.dyn_peer[18] 	lookupHopsSig:mean 	1.5779816513761
scalar Network.dyn_peer[19] 	lookupTimeSig:mean 	0.24111675126904
scalar Network.dyn_peer[19] 	lookupStabilitySig:mean 	0.86824810087
scalar Network.dyn_peer[19] 	lookupHopsSig:mean 	1.5888324873096
scalar Network.dyn_peer[20] 	lookupTimeSig:mean 	0.24513274336283
scalar Network.dyn_peer[20] 	lookupStabilitySig:mean 	0.87517168760234
scalar Network.dyn_peer[20] 	lookupHopsSig:mean 	1.5929203539823
scalar Network.dyn_peer[21] 	lookupTimeSig:mean 	0.26
scalar Network.dyn_peer[21] 	lookupStabilitySig:mean 	0.86209815442562
scalar Network.dyn_peer[21] 	lookupHopsSig:mean 	1.7285714285714
scalar Network.dyn_peer[22] 	lookupTimeSig:mean 	0.25381165919283
scalar Network.dyn_peer[22] 	lookupStabilitySig:mean 	0.873409374095
scalar Network.dyn_peer[22] 	lookupHopsSig:mean 	1.6816143497758
scalar Network.dyn_peer[23] 	lookupTimeSig:mean 	0.24636363636364
scalar Network.dyn_peer[23] 	lookupStabilitySig:mean 	0.86937270824882
scalar Network.dyn_peer[23] 	lookupHopsSig:mean 	1.6181818181818
scalar Network.dyn_peer[24] 	lookupTimeSig:mean 	0.25521739130435
scalar Network.dyn_peer[24] 	lookupStabilitySig:mean 	0.87176124736991
scalar Network.dyn_peer[24] 	lookupHopsSig:mean 	1.6913043478261
scalar Network.dyn_peer[25] 	lookupTimeSig:mean 	0.24892703862661
scalar Network.dyn_peer[25] 	lookupStabilitySig:mean 	0.86724572299376
scalar Network.dyn_peer[25] 	lookupHopsSig:mean 	1.6351931330472
scalar Network.dyn_peer[26] 	lookupTimeSig:mean 	0.2546875
scalar Network.dyn_peer[26] 	lookupStabilitySig:mean 	0.87702457560226
scalar Network.dyn_peer[26] 	lookupHopsSig:mean 	1.671875
scalar Network.dyn_peer[27] 	lookupTimeSig:mean 	0.24805194805195
scalar Network.dyn_peer[27] 	lookupStabilitySig:mean 	0.86754190965326
scalar Network.dyn_peer[27] 	lookupHopsSig:mean 	1.6233766233766
scalar Network.dyn_peer[28] 	lookupTimeSig:mean 	0.24716981132075
scalar Network.dyn_peer[28] 	lookupStabilitySig:mean 	0.87521769297924
scalar Network.dyn_peer[28] 	lookupHopsSig:mean 	1.622641509434
scalar Network.dyn_peer[29] 	lookupTimeSig:mean 	0.25
scalar Network.dyn_peer[29] 	lookupStabilitySig:mean 	0.85885076066761
scalar Network.dyn_peer[29] 	lookupHopsSig:mean 	1.6818181818182
scalar Network.dyn_peer[30] 	lookupTimeSig:mean 	0.25362903225806
scalar Network.dyn_peer[30] 	lookupStabilitySig:mean 	0.8734716179991
scalar Network.dyn_peer[30] 	lookupHopsSig:mean 	1.6653225806452
scalar Network.dyn_peer[31] 	lookupTimeSig:mean 	0.23686868686869
scalar Network.dyn_peer[31] 	lookupStabilitySig:mean 	0.87490291385488
scalar Network.dyn_peer[31] 	lookupHopsSig:mean 	1.530303030303
