version 2
run Stability2-90-20130528-01:46:59-24168
attr configname Stability2
attr datetime 20130528-01:46:59
attr experiment Stability2
attr inifile omnetpp.ini
attr iterationvars $0=500
attr iterationvars2 "$0=500, $repetition=0"
attr measurement $0=500
attr network Network
attr processid 24168
attr repetition 0
attr replication #0
attr resultdir results
attr runnumber 90
attr seedset 90

scalar Network.dyn_peer[0] 	lookupTimeSig:mean 	3.2285714285714
scalar Network.dyn_peer[0] 	lookupStabilitySig:mean 	0.8468725482401
scalar Network.dyn_peer[0] 	lookupHopsSig:mean 	31.357142857143
scalar Network.dyn_peer[1] 	lookupTimeSig:mean 	1.7285714285714
scalar Network.dyn_peer[1] 	lookupStabilitySig:mean 	0.85231291293167
scalar Network.dyn_peer[1] 	lookupHopsSig:mean 	16.357142857143
scalar Network.dyn_peer[2] 	lookupTimeSig:mean 	2.6875
scalar Network.dyn_peer[2] 	lookupStabilitySig:mean 	0.86186005899799
scalar Network.dyn_peer[2] 	lookupHopsSig:mean 	25.9375
scalar Network.dyn_peer[3] 	lookupTimeSig:mean 	1.8153846153846
scalar Network.dyn_peer[3] 	lookupStabilitySig:mean 	0.84495941581778
scalar Network.dyn_peer[3] 	lookupHopsSig:mean 	17.230769230769
scalar Network.dyn_peer[4] 	lookupTimeSig:mean 	2.2235294117647
scalar Network.dyn_peer[4] 	lookupStabilitySig:mean 	0.85764196153511
scalar Network.dyn_peer[4] 	lookupHopsSig:mean 	21.294117647059
scalar Network.dyn_peer[5] 	lookupTimeSig:mean 	1.9588235294118
scalar Network.dyn_peer[5] 	lookupStabilitySig:mean 	0.87509567402851
scalar Network.dyn_peer[5] 	lookupHopsSig:mean 	18.647058823529
scalar Network.dyn_peer[6] 	lookupTimeSig:mean 	2.1736842105263
scalar Network.dyn_peer[6] 	lookupStabilitySig:mean 	0.90448568295687
scalar Network.dyn_peer[6] 	lookupHopsSig:mean 	20.789473684211
scalar Network.dyn_peer[7] 	lookupTimeSig:mean 	2.64375
scalar Network.dyn_peer[7] 	lookupStabilitySig:mean 	0.87956848309841
scalar Network.dyn_peer[7] 	lookupHopsSig:mean 	25.5
scalar Network.dyn_peer[8] 	lookupTimeSig:mean 	2.1642857142857
scalar Network.dyn_peer[8] 	lookupStabilitySig:mean 	0.85365381930023
scalar Network.dyn_peer[8] 	lookupHopsSig:mean 	20.714285714286
scalar Network.dyn_peer[9] 	lookupTimeSig:mean 	2.55
scalar Network.dyn_peer[9] 	lookupStabilitySig:mean 	0.73642837221269
scalar Network.dyn_peer[9] 	lookupHopsSig:mean 	24.625
scalar Network.dyn_peer[10] 	lookupTimeSig:mean 	2.7842105263158
scalar Network.dyn_peer[10] 	lookupStabilitySig:mean 	0.88310100400428
scalar Network.dyn_peer[10] 	lookupHopsSig:mean 	26.894736842105
scalar Network.dyn_peer[11] 	lookupTimeSig:mean 	2.0230769230769
scalar Network.dyn_peer[11] 	lookupStabilitySig:mean 	0.82300467807083
scalar Network.dyn_peer[11] 	lookupHopsSig:mean 	19.307692307692
scalar Network.dyn_peer[12] 	lookupTimeSig:mean 	2.2125
scalar Network.dyn_peer[12] 	lookupStabilitySig:mean 	0.86728707689326
scalar Network.dyn_peer[12] 	lookupHopsSig:mean 	21.1875
scalar Network.dyn_peer[13] 	lookupTimeSig:mean 	2.2142857142857
scalar Network.dyn_peer[13] 	lookupStabilitySig:mean 	0.84528410581074
scalar Network.dyn_peer[13] 	lookupHopsSig:mean 	21.214285714286
scalar Network.dyn_peer[14] 	lookupTimeSig:mean 	2.3444444444444
scalar Network.dyn_peer[14] 	lookupStabilitySig:mean 	0.86791316466406
scalar Network.dyn_peer[14] 	lookupHopsSig:mean 	22.5
scalar Network.dyn_peer[15] 	lookupTimeSig:mean 	2.5764705882353
scalar Network.dyn_peer[15] 	lookupStabilitySig:mean 	0.86724367745988
scalar Network.dyn_peer[15] 	lookupHopsSig:mean 	24.823529411765
scalar Network.dyn_peer[16] 	lookupTimeSig:mean 	1.0777777777778
scalar Network.dyn_peer[16] 	lookupStabilitySig:mean 	0.82207134805827
scalar Network.dyn_peer[16] 	lookupHopsSig:mean 	9.8888888888889
scalar Network.dyn_peer[17] 	lookupTimeSig:mean 	2.5823529411765
scalar Network.dyn_peer[17] 	lookupStabilitySig:mean 	0.86919263670878
scalar Network.dyn_peer[17] 	lookupHopsSig:mean 	24.882352941176
scalar Network.dyn_peer[18] 	lookupTimeSig:mean 	1.82
scalar Network.dyn_peer[18] 	lookupStabilitySig:mean 	0.8252632746473
scalar Network.dyn_peer[18] 	lookupHopsSig:mean 	17.3
scalar Network.dyn_peer[19] 	lookupTimeSig:mean 	2.4777777777778
scalar Network.dyn_peer[19] 	lookupStabilitySig:mean 	0.87626306940284
scalar Network.dyn_peer[19] 	lookupHopsSig:mean 	23.833333333333
scalar Network.dyn_peer[20] 	lookupTimeSig:mean 	1.3875
scalar Network.dyn_peer[20] 	lookupStabilitySig:mean 	0.87586848350475
scalar Network.dyn_peer[20] 	lookupHopsSig:mean 	12.9375
scalar Network.dyn_peer[21] 	lookupTimeSig:mean 	2.5
scalar Network.dyn_peer[21] 	lookupStabilitySig:mean 	0.81500564972785
scalar Network.dyn_peer[21] 	lookupHopsSig:mean 	24.090909090909
scalar Network.dyn_peer[22] 	lookupTimeSig:mean 	2.7277777777778
scalar Network.dyn_peer[22] 	lookupStabilitySig:mean 	0.89172827165263
scalar Network.dyn_peer[22] 	lookupHopsSig:mean 	26.333333333333
scalar Network.dyn_peer[23] 	lookupTimeSig:mean 	1.6588235294118
scalar Network.dyn_peer[23] 	lookupStabilitySig:mean 	0.87668823738418
scalar Network.dyn_peer[23] 	lookupHopsSig:mean 	15.647058823529
scalar Network.dyn_peer[24] 	lookupTimeSig:mean 	2.4133333333333
scalar Network.dyn_peer[24] 	lookupStabilitySig:mean 	0.88568121474236
scalar Network.dyn_peer[24] 	lookupHopsSig:mean 	23.2
scalar Network.dyn_peer[25] 	lookupTimeSig:mean 	2.5055555555556
scalar Network.dyn_peer[25] 	lookupStabilitySig:mean 	0.92392799867472
scalar Network.dyn_peer[25] 	lookupHopsSig:mean 	24.111111111111
scalar Network.dyn_peer[26] 	lookupTimeSig:mean 	2.0692307692308
scalar Network.dyn_peer[26] 	lookupStabilitySig:mean 	0.8485571097296
scalar Network.dyn_peer[26] 	lookupHopsSig:mean 	19.769230769231
scalar Network.dyn_peer[27] 	lookupTimeSig:mean 	1.94
scalar Network.dyn_peer[27] 	lookupStabilitySig:mean 	0.86949069984257
scalar Network.dyn_peer[27] 	lookupHopsSig:mean 	18.466666666667
scalar Network.dyn_peer[28] 	lookupTimeSig:mean 	2.9444444444444
scalar Network.dyn_peer[28] 	lookupStabilitySig:mean 	0.90847466948132
scalar Network.dyn_peer[28] 	lookupHopsSig:mean 	28.5
scalar Network.dyn_peer[29] 	lookupTimeSig:mean 	2.075
scalar Network.dyn_peer[29] 	lookupStabilitySig:mean 	0.79996640328318
scalar Network.dyn_peer[29] 	lookupHopsSig:mean 	19.875
scalar Network.dyn_peer[30] 	lookupTimeSig:mean 	2.2444444444444
scalar Network.dyn_peer[30] 	lookupStabilitySig:mean 	0.84956713589943
scalar Network.dyn_peer[30] 	lookupHopsSig:mean 	21.555555555556
scalar Network.dyn_peer[31] 	lookupTimeSig:mean 	2.5714285714286
scalar Network.dyn_peer[31] 	lookupStabilitySig:mean 	0.9229206145863
scalar Network.dyn_peer[31] 	lookupHopsSig:mean 	24.761904761905
scalar Network.dyn_peer[32] 	lookupTimeSig:mean 	2.1909090909091
scalar Network.dyn_peer[32] 	lookupStabilitySig:mean 	0.87296721855686
scalar Network.dyn_peer[32] 	lookupHopsSig:mean 	21
scalar Network.dyn_peer[33] 	lookupTimeSig:mean 	2.7538461538462
scalar Network.dyn_peer[33] 	lookupStabilitySig:mean 	0.92164682770649
scalar Network.dyn_peer[33] 	lookupHopsSig:mean 	26.576923076923
scalar Network.dyn_peer[34] 	lookupTimeSig:mean 	2.95
scalar Network.dyn_peer[34] 	lookupStabilitySig:mean 	0.81806582380086
scalar Network.dyn_peer[34] 	lookupHopsSig:mean 	28.6
scalar Network.dyn_peer[35] 	lookupTimeSig:mean 	3.13125
scalar Network.dyn_peer[35] 	lookupStabilitySig:mean 	0.88571901913383
scalar Network.dyn_peer[35] 	lookupHopsSig:mean 	30.375
scalar Network.dyn_peer[36] 	lookupTimeSig:mean 	2.1333333333333
scalar Network.dyn_peer[36] 	lookupStabilitySig:mean 	0.89024530894433
scalar Network.dyn_peer[36] 	lookupHopsSig:mean 	20.4
scalar Network.dyn_peer[37] 	lookupTimeSig:mean 	2.5333333333333
scalar Network.dyn_peer[37] 	lookupStabilitySig:mean 	0.90380685505945
scalar Network.dyn_peer[37] 	lookupHopsSig:mean 	24.380952380952
scalar Network.dyn_peer[38] 	lookupTimeSig:mean 	1.7315789473684
scalar Network.dyn_peer[38] 	lookupStabilitySig:mean 	0.89504876726699
scalar Network.dyn_peer[38] 	lookupHopsSig:mean 	16.368421052632
scalar Network.dyn_peer[39] 	lookupTimeSig:mean 	2.1666666666667
scalar Network.dyn_peer[39] 	lookupStabilitySig:mean 	0.88637697945038
scalar Network.dyn_peer[39] 	lookupHopsSig:mean 	20.733333333333
scalar Network.dyn_peer[40] 	lookupTimeSig:mean 	2.8333333333333
scalar Network.dyn_peer[40] 	lookupStabilitySig:mean 	0.90740050887689
scalar Network.dyn_peer[40] 	lookupHopsSig:mean 	27.388888888889
scalar Network.dyn_peer[41] 	lookupTimeSig:mean 	1.7
scalar Network.dyn_peer[41] 	lookupStabilitySig:mean 	0.92434115201468
scalar Network.dyn_peer[41] 	lookupHopsSig:mean 	16.0625
scalar Network.dyn_peer[42] 	lookupTimeSig:mean 	1.93
scalar Network.dyn_peer[42] 	lookupStabilitySig:mean 	0.84171319901943
scalar Network.dyn_peer[42] 	lookupHopsSig:mean 	18.4
scalar Network.dyn_peer[43] 	lookupTimeSig:mean 	2.16875
scalar Network.dyn_peer[43] 	lookupStabilitySig:mean 	0.89136608428089
scalar Network.dyn_peer[43] 	lookupHopsSig:mean 	20.75
scalar Network.dyn_peer[44] 	lookupTimeSig:mean 	2.18
scalar Network.dyn_peer[44] 	lookupStabilitySig:mean 	0.90728571823565
scalar Network.dyn_peer[44] 	lookupHopsSig:mean 	20.85
scalar Network.dyn_peer[45] 	lookupTimeSig:mean 	3.0428571428571
scalar Network.dyn_peer[45] 	lookupStabilitySig:mean 	0.88922903460584
scalar Network.dyn_peer[45] 	lookupHopsSig:mean 	29.5
scalar Network.dyn_peer[46] 	lookupTimeSig:mean 	2.89375
scalar Network.dyn_peer[46] 	lookupStabilitySig:mean 	0.90181758083054
scalar Network.dyn_peer[46] 	lookupHopsSig:mean 	28
scalar Network.dyn_peer[47] 	lookupTimeSig:mean 	2.2583333333333
scalar Network.dyn_peer[47] 	lookupStabilitySig:mean 	0.89973203789365
scalar Network.dyn_peer[47] 	lookupHopsSig:mean 	21.666666666667
scalar Network.dyn_peer[48] 	lookupTimeSig:mean 	1.7615384615385
scalar Network.dyn_peer[48] 	lookupStabilitySig:mean 	0.87087263847486
scalar Network.dyn_peer[48] 	lookupHopsSig:mean 	16.692307692308
scalar Network.dyn_peer[49] 	lookupTimeSig:mean 	2.4058823529412
scalar Network.dyn_peer[49] 	lookupStabilitySig:mean 	0.92921438366723
scalar Network.dyn_peer[49] 	lookupHopsSig:mean 	23.117647058824
scalar Network.dyn_peer[50] 	lookupTimeSig:mean 	3.3647058823529
scalar Network.dyn_peer[50] 	lookupStabilitySig:mean 	0.89689021461698
scalar Network.dyn_peer[50] 	lookupHopsSig:mean 	32.705882352941
scalar Network.dyn_peer[51] 	lookupTimeSig:mean 	1.9590909090909
scalar Network.dyn_peer[51] 	lookupStabilitySig:mean 	0.91935416474007
scalar Network.dyn_peer[51] 	lookupHopsSig:mean 	18.636363636364
scalar Network.dyn_peer[52] 	lookupTimeSig:mean 	2.7111111111111
scalar Network.dyn_peer[52] 	lookupStabilitySig:mean 	0.9114908100261
scalar Network.dyn_peer[52] 	lookupHopsSig:mean 	26.166666666667
scalar Network.dyn_peer[53] 	lookupTimeSig:mean 	1.8117647058824
scalar Network.dyn_peer[53] 	lookupStabilitySig:mean 	0.89017821719651
scalar Network.dyn_peer[53] 	lookupHopsSig:mean 	17.176470588235
scalar Network.dyn_peer[54] 	lookupTimeSig:mean 	2.3041666666667
scalar Network.dyn_peer[54] 	lookupStabilitySig:mean 	0.92947496695221
scalar Network.dyn_peer[54] 	lookupHopsSig:mean 	22.083333333333
scalar Network.dyn_peer[55] 	lookupTimeSig:mean 	3.0764705882353
scalar Network.dyn_peer[55] 	lookupStabilitySig:mean 	0.93369351780754
scalar Network.dyn_peer[55] 	lookupHopsSig:mean 	29.823529411765
scalar Network.dyn_peer[56] 	lookupTimeSig:mean 	2.125
scalar Network.dyn_peer[56] 	lookupStabilitySig:mean 	0.83360626304056
scalar Network.dyn_peer[56] 	lookupHopsSig:mean 	20.375
scalar Network.dyn_peer[57] 	lookupTimeSig:mean 	2.3277777777778
scalar Network.dyn_peer[57] 	lookupStabilitySig:mean 	0.91506062471308
scalar Network.dyn_peer[57] 	lookupHopsSig:mean 	22.333333333333
scalar Network.dyn_peer[58] 	lookupTimeSig:mean 	1.63
scalar Network.dyn_peer[58] 	lookupStabilitySig:mean 	0.87310019806027
scalar Network.dyn_peer[58] 	lookupHopsSig:mean 	15.4
scalar Network.dyn_peer[59] 	lookupTimeSig:mean 	2.0636363636364
scalar Network.dyn_peer[59] 	lookupStabilitySig:mean 	0.88829711536792
scalar Network.dyn_peer[59] 	lookupHopsSig:mean 	19.727272727273
scalar Network.dyn_peer[60] 	lookupTimeSig:mean 	2.675
scalar Network.dyn_peer[60] 	lookupStabilitySig:mean 	0.88792285020463
scalar Network.dyn_peer[60] 	lookupHopsSig:mean 	25.8125
scalar Network.dyn_peer[61] 	lookupTimeSig:mean 	1.9521739130435
scalar Network.dyn_peer[61] 	lookupStabilitySig:mean 	0.92425687483552
scalar Network.dyn_peer[61] 	lookupHopsSig:mean 	18.565217391304
scalar Network.dyn_peer[62] 	lookupTimeSig:mean 	2.8705882352941
scalar Network.dyn_peer[62] 	lookupStabilitySig:mean 	0.93252656074679
scalar Network.dyn_peer[62] 	lookupHopsSig:mean 	27.764705882353
scalar Network.dyn_peer[63] 	lookupTimeSig:mean 	2.1444444444444
scalar Network.dyn_peer[63] 	lookupStabilitySig:mean 	0.91199532234006
scalar Network.dyn_peer[63] 	lookupHopsSig:mean 	20.5
scalar Network.dyn_peer[64] 	lookupTimeSig:mean 	2.4631578947368
scalar Network.dyn_peer[64] 	lookupStabilitySig:mean 	0.91390799333979
scalar Network.dyn_peer[64] 	lookupHopsSig:mean 	23.684210526316
scalar Network.dyn_peer[65] 	lookupTimeSig:mean 	2.0714285714286
scalar Network.dyn_peer[65] 	lookupStabilitySig:mean 	0.88270611528839
scalar Network.dyn_peer[65] 	lookupHopsSig:mean 	19.785714285714
scalar Network.dyn_peer[66] 	lookupTimeSig:mean 	2.27
scalar Network.dyn_peer[66] 	lookupStabilitySig:mean 	0.93659320813604
scalar Network.dyn_peer[66] 	lookupHopsSig:mean 	21.75
scalar Network.dyn_peer[67] 	lookupTimeSig:mean 	1.5444444444444
scalar Network.dyn_peer[67] 	lookupStabilitySig:mean 	0.91207877479287
scalar Network.dyn_peer[67] 	lookupHopsSig:mean 	14.5
scalar Network.dyn_peer[68] 	lookupTimeSig:mean 	2.4571428571429
scalar Network.dyn_peer[68] 	lookupStabilitySig:mean 	0.92798016130525
scalar Network.dyn_peer[68] 	lookupHopsSig:mean 	23.642857142857
scalar Network.dyn_peer[69] 	lookupTimeSig:mean 	1.7785714285714
scalar Network.dyn_peer[69] 	lookupStabilitySig:mean 	0.91626894899777
scalar Network.dyn_peer[69] 	lookupHopsSig:mean 	16.857142857143
scalar Network.dyn_peer[70] 	lookupTimeSig:mean 	2.4733333333333
scalar Network.dyn_peer[70] 	lookupStabilitySig:mean 	0.92168681357677
scalar Network.dyn_peer[70] 	lookupHopsSig:mean 	23.8
scalar Network.dyn_peer[71] 	lookupTimeSig:mean 	2.1
scalar Network.dyn_peer[71] 	lookupStabilitySig:mean 	0.91865837685764
scalar Network.dyn_peer[71] 	lookupHopsSig:mean 	20.05
scalar Network.dyn_peer[72] 	lookupTimeSig:mean 	1.9416666666667
scalar Network.dyn_peer[72] 	lookupStabilitySig:mean 	0.88790860488856
scalar Network.dyn_peer[72] 	lookupHopsSig:mean 	18.5
scalar Network.dyn_peer[73] 	lookupTimeSig:mean 	1.71
scalar Network.dyn_peer[73] 	lookupStabilitySig:mean 	0.86045779101551
scalar Network.dyn_peer[73] 	lookupHopsSig:mean 	16.2
scalar Network.dyn_peer[74] 	lookupTimeSig:mean 	2.2428571428571
scalar Network.dyn_peer[74] 	lookupStabilitySig:mean 	0.91250151382493
scalar Network.dyn_peer[74] 	lookupHopsSig:mean 	21.5
scalar Network.dyn_peer[75] 	lookupTimeSig:mean 	2.3764705882353
scalar Network.dyn_peer[75] 	lookupStabilitySig:mean 	0.92341643536244
scalar Network.dyn_peer[75] 	lookupHopsSig:mean 	22.823529411765
scalar Network.dyn_peer[76] 	lookupTimeSig:mean 	2.0529411764706
scalar Network.dyn_peer[76] 	lookupStabilitySig:mean 	0.90960295186104
scalar Network.dyn_peer[76] 	lookupHopsSig:mean 	19.588235294118
scalar Network.dyn_peer[77] 	lookupTimeSig:mean 	1.5526315789474
scalar Network.dyn_peer[77] 	lookupStabilitySig:mean 	0.92136616296576
scalar Network.dyn_peer[77] 	lookupHopsSig:mean 	14.578947368421
scalar Network.dyn_peer[78] 	lookupTimeSig:mean 	1.35
scalar Network.dyn_peer[78] 	lookupStabilitySig:mean 	0.94318024217085
scalar Network.dyn_peer[78] 	lookupHopsSig:mean 	12.571428571429
scalar Network.dyn_peer[79] 	lookupTimeSig:mean 	1.6625
scalar Network.dyn_peer[79] 	lookupStabilitySig:mean 	0.92414422056754
scalar Network.dyn_peer[79] 	lookupHopsSig:mean 	15.6875
scalar Network.dyn_peer[80] 	lookupTimeSig:mean 	2.2761904761905
scalar Network.dyn_peer[80] 	lookupStabilitySig:mean 	0.94665050843642
scalar Network.dyn_peer[80] 	lookupHopsSig:mean 	21.809523809524
scalar Network.dyn_peer[81] 	lookupTimeSig:mean 	2.775
scalar Network.dyn_peer[81] 	lookupStabilitySig:mean 	0.90195425708468
scalar Network.dyn_peer[81] 	lookupHopsSig:mean 	26.833333333333
scalar Network.dyn_peer[82] 	lookupTimeSig:mean 	2.1
scalar Network.dyn_peer[82] 	lookupStabilitySig:mean 	0.89624581372217
scalar Network.dyn_peer[82] 	lookupHopsSig:mean 	20.090909090909
scalar Network.dyn_peer[83] 	lookupTimeSig:mean 	3.2833333333333
scalar Network.dyn_peer[83] 	lookupStabilitySig:mean 	0.94884888861432
scalar Network.dyn_peer[83] 	lookupHopsSig:mean 	31.888888888889
scalar Network.dyn_peer[84] 	lookupTimeSig:mean 	2.1285714285714
scalar Network.dyn_peer[84] 	lookupStabilitySig:mean 	0.90925593532821
scalar Network.dyn_peer[84] 	lookupHopsSig:mean 	20.357142857143
scalar Network.dyn_peer[85] 	lookupTimeSig:mean 	1.9071428571429
scalar Network.dyn_peer[85] 	lookupStabilitySig:mean 	0.91771954623982
scalar Network.dyn_peer[85] 	lookupHopsSig:mean 	18.142857142857
scalar Network.dyn_peer[86] 	lookupTimeSig:mean 	1.4454545454545
scalar Network.dyn_peer[86] 	lookupStabilitySig:mean 	0.8993107590147
scalar Network.dyn_peer[86] 	lookupHopsSig:mean 	13.545454545455
scalar Network.dyn_peer[87] 	lookupTimeSig:mean 	0.8125
scalar Network.dyn_peer[87] 	lookupStabilitySig:mean 	0.87150032352656
scalar Network.dyn_peer[87] 	lookupHopsSig:mean 	7.25
scalar Network.dyn_peer[88] 	lookupTimeSig:mean 	2.7526315789474
scalar Network.dyn_peer[88] 	lookupStabilitySig:mean 	0.94049689776607
scalar Network.dyn_peer[88] 	lookupHopsSig:mean 	26.578947368421
scalar Network.dyn_peer[89] 	lookupTimeSig:mean 	2.0833333333333
scalar Network.dyn_peer[89] 	lookupStabilitySig:mean 	0.92823140402713
scalar Network.dyn_peer[89] 	lookupHopsSig:mean 	19.916666666667
scalar Network.dyn_peer[90] 	lookupTimeSig:mean 	3.4428571428571
scalar Network.dyn_peer[90] 	lookupStabilitySig:mean 	0.90710584340351
scalar Network.dyn_peer[90] 	lookupHopsSig:mean 	33.5
scalar Network.dyn_peer[91] 	lookupTimeSig:mean 	2.71
scalar Network.dyn_peer[91] 	lookupStabilitySig:mean 	0.93057830967009
scalar Network.dyn_peer[91] 	lookupHopsSig:mean 	26.15
scalar Network.dyn_peer[92] 	lookupTimeSig:mean 	2.6888888888889
scalar Network.dyn_peer[92] 	lookupStabilitySig:mean 	0.92471577061547
scalar Network.dyn_peer[92] 	lookupHopsSig:mean 	26
scalar Network.dyn_peer[93] 	lookupTimeSig:mean 	2.1384615384615
scalar Network.dyn_peer[93] 	lookupStabilitySig:mean 	0.9106810809328
scalar Network.dyn_peer[93] 	lookupHopsSig:mean 	20.461538461538
scalar Network.dyn_peer[94] 	lookupTimeSig:mean 	2.51875
scalar Network.dyn_peer[94] 	lookupStabilitySig:mean 	0.92634394919151
scalar Network.dyn_peer[94] 	lookupHopsSig:mean 	24.25
scalar Network.dyn_peer[95] 	lookupTimeSig:mean 	3.1294117647059
scalar Network.dyn_peer[95] 	lookupStabilitySig:mean 	0.92924212445231
scalar Network.dyn_peer[95] 	lookupHopsSig:mean 	30.352941176471
scalar Network.dyn_peer[96] 	lookupTimeSig:mean 	2.365
scalar Network.dyn_peer[96] 	lookupStabilitySig:mean 	0.94547644582344
scalar Network.dyn_peer[96] 	lookupHopsSig:mean 	22.7
scalar Network.dyn_peer[97] 	lookupTimeSig:mean 	2.7833333333333
scalar Network.dyn_peer[97] 	lookupStabilitySig:mean 	0.93708731086614
scalar Network.dyn_peer[97] 	lookupHopsSig:mean 	26.916666666667
scalar Network.dyn_peer[98] 	lookupTimeSig:mean 	2.88
scalar Network.dyn_peer[98] 	lookupStabilitySig:mean 	0.92019832126486
scalar Network.dyn_peer[98] 	lookupHopsSig:mean 	27.866666666667
scalar Network.dyn_peer[99] 	lookupTimeSig:mean 	2.775
scalar Network.dyn_peer[99] 	lookupStabilitySig:mean 	0.89143052580766
scalar Network.dyn_peer[99] 	lookupHopsSig:mean 	26.875
scalar Network.dyn_peer[100] 	lookupTimeSig:mean 	2.2266666666667
scalar Network.dyn_peer[100] 	lookupStabilitySig:mean 	0.93950696409059
scalar Network.dyn_peer[100] 	lookupHopsSig:mean 	21.333333333333
scalar Network.dyn_peer[101] 	lookupTimeSig:mean 	2.5263157894737
scalar Network.dyn_peer[101] 	lookupStabilitySig:mean 	0.92958364150438
scalar Network.dyn_peer[101] 	lookupHopsSig:mean 	24.315789473684
scalar Network.dyn_peer[102] 	lookupTimeSig:mean 	2.9733333333333
scalar Network.dyn_peer[102] 	lookupStabilitySig:mean 	0.9254554837166
scalar Network.dyn_peer[102] 	lookupHopsSig:mean 	28.8
scalar Network.dyn_peer[103] 	lookupTimeSig:mean 	3.2461538461538
scalar Network.dyn_peer[103] 	lookupStabilitySig:mean 	0.91565366762762
scalar Network.dyn_peer[103] 	lookupHopsSig:mean 	31.538461538462
scalar Network.dyn_peer[104] 	lookupTimeSig:mean 	3.08
scalar Network.dyn_peer[104] 	lookupStabilitySig:mean 	0.92681966790309
scalar Network.dyn_peer[104] 	lookupHopsSig:mean 	29.866666666667
scalar Network.dyn_peer[105] 	lookupTimeSig:mean 	2.8333333333333
scalar Network.dyn_peer[105] 	lookupStabilitySig:mean 	0.89935215883371
scalar Network.dyn_peer[105] 	lookupHopsSig:mean 	27.444444444444
scalar Network.dyn_peer[106] 	lookupTimeSig:mean 	3.2357142857143
scalar Network.dyn_peer[106] 	lookupStabilitySig:mean 	0.92869160492306
scalar Network.dyn_peer[106] 	lookupHopsSig:mean 	31.428571428571
scalar Network.dyn_peer[107] 	lookupTimeSig:mean 	2
scalar Network.dyn_peer[107] 	lookupStabilitySig:mean 	0.92591792292131
scalar Network.dyn_peer[107] 	lookupHopsSig:mean 	19.090909090909
scalar Network.dyn_peer[108] 	lookupTimeSig:mean 	1.75625
scalar Network.dyn_peer[108] 	lookupStabilitySig:mean 	0.9374123513262
scalar Network.dyn_peer[108] 	lookupHopsSig:mean 	16.625
scalar Network.dyn_peer[109] 	lookupTimeSig:mean 	2.7833333333333
scalar Network.dyn_peer[109] 	lookupStabilitySig:mean 	0.93558425068234
scalar Network.dyn_peer[109] 	lookupHopsSig:mean 	26.916666666667
scalar Network.dyn_peer[110] 	lookupTimeSig:mean 	2.8454545454545
scalar Network.dyn_peer[110] 	lookupStabilitySig:mean 	0.95019432669241
scalar Network.dyn_peer[110] 	lookupHopsSig:mean 	27.5
scalar Network.dyn_peer[111] 	lookupTimeSig:mean 	2.0111111111111
scalar Network.dyn_peer[111] 	lookupStabilitySig:mean 	0.9489642005776
scalar Network.dyn_peer[111] 	lookupHopsSig:mean 	19.166666666667
scalar Network.dyn_peer[112] 	lookupTimeSig:mean 	2.28
scalar Network.dyn_peer[112] 	lookupStabilitySig:mean 	0.92614540948222
scalar Network.dyn_peer[112] 	lookupHopsSig:mean 	21.866666666667
scalar Network.dyn_peer[113] 	lookupTimeSig:mean 	1.8857142857143
scalar Network.dyn_peer[113] 	lookupStabilitySig:mean 	0.92974163728234
scalar Network.dyn_peer[113] 	lookupHopsSig:mean 	17.928571428571
scalar Network.dyn_peer[114] 	lookupTimeSig:mean 	2.532
scalar Network.dyn_peer[114] 	lookupStabilitySig:mean 	0.9614387745643
scalar Network.dyn_peer[114] 	lookupHopsSig:mean 	24.36
scalar Network.dyn_peer[115] 	lookupTimeSig:mean 	2.2357142857143
scalar Network.dyn_peer[115] 	lookupStabilitySig:mean 	0.93753782945818
scalar Network.dyn_peer[115] 	lookupHopsSig:mean 	21.428571428571
scalar Network.dyn_peer[116] 	lookupTimeSig:mean 	2.0166666666667
scalar Network.dyn_peer[116] 	lookupStabilitySig:mean 	0.92519763158634
scalar Network.dyn_peer[116] 	lookupHopsSig:mean 	19.25
scalar Network.dyn_peer[117] 	lookupTimeSig:mean 	2.26
scalar Network.dyn_peer[117] 	lookupStabilitySig:mean 	0.94119323622435
scalar Network.dyn_peer[117] 	lookupHopsSig:mean 	21.65
scalar Network.dyn_peer[118] 	lookupTimeSig:mean 	2.3
scalar Network.dyn_peer[118] 	lookupStabilitySig:mean 	0.92546865014204
scalar Network.dyn_peer[118] 	lookupHopsSig:mean 	22.083333333333
scalar Network.dyn_peer[119] 	lookupTimeSig:mean 	2.4857142857143
scalar Network.dyn_peer[119] 	lookupStabilitySig:mean 	0.93549956547629
scalar Network.dyn_peer[119] 	lookupHopsSig:mean 	23.928571428571
scalar Network.dyn_peer[120] 	lookupTimeSig:mean 	2.5142857142857
scalar Network.dyn_peer[120] 	lookupStabilitySig:mean 	0.934631641422
scalar Network.dyn_peer[120] 	lookupHopsSig:mean 	24.214285714286
scalar Network.dyn_peer[121] 	lookupTimeSig:mean 	3.2615384615385
scalar Network.dyn_peer[121] 	lookupStabilitySig:mean 	0.92851099529519
scalar Network.dyn_peer[121] 	lookupHopsSig:mean 	31.692307692308
scalar Network.dyn_peer[122] 	lookupTimeSig:mean 	3.0590909090909
scalar Network.dyn_peer[122] 	lookupStabilitySig:mean 	0.95101480357434
scalar Network.dyn_peer[122] 	lookupHopsSig:mean 	29.636363636364
scalar Network.dyn_peer[123] 	lookupTimeSig:mean 	2.18125
scalar Network.dyn_peer[123] 	lookupStabilitySig:mean 	0.94021384662483
scalar Network.dyn_peer[123] 	lookupHopsSig:mean 	20.875
scalar Network.dyn_peer[124] 	lookupTimeSig:mean 	2.1357142857143
scalar Network.dyn_peer[124] 	lookupStabilitySig:mean 	0.92990318289958
scalar Network.dyn_peer[124] 	lookupHopsSig:mean 	20.428571428571
scalar Network.dyn_peer[125] 	lookupTimeSig:mean 	3.1
scalar Network.dyn_peer[125] 	lookupStabilitySig:mean 	0.94061373213593
scalar Network.dyn_peer[125] 	lookupHopsSig:mean 	30.076923076923
scalar Network.dyn_peer[126] 	lookupTimeSig:mean 	2.86875
scalar Network.dyn_peer[126] 	lookupStabilitySig:mean 	0.93938360485481
scalar Network.dyn_peer[126] 	lookupHopsSig:mean 	27.75
scalar Network.dyn_peer[127] 	lookupTimeSig:mean 	2.5533333333333
scalar Network.dyn_peer[127] 	lookupStabilitySig:mean 	0.94870180363456
scalar Network.dyn_peer[127] 	lookupHopsSig:mean 	24.6
scalar Network.dyn_peer[128] 	lookupTimeSig:mean 	2.7181818181818
scalar Network.dyn_peer[128] 	lookupStabilitySig:mean 	0.91547850951214
scalar Network.dyn_peer[128] 	lookupHopsSig:mean 	26.272727272727
scalar Network.dyn_peer[129] 	lookupTimeSig:mean 	2.0625
scalar Network.dyn_peer[129] 	lookupStabilitySig:mean 	0.93604686452272
scalar Network.dyn_peer[129] 	lookupHopsSig:mean 	19.6875
scalar Network.dyn_peer[130] 	lookupTimeSig:mean 	2.675
scalar Network.dyn_peer[130] 	lookupStabilitySig:mean 	0.94375732121989
scalar Network.dyn_peer[130] 	lookupHopsSig:mean 	25.8125
scalar Network.dyn_peer[131] 	lookupTimeSig:mean 	1.6615384615385
scalar Network.dyn_peer[131] 	lookupStabilitySig:mean 	0.9531929661484
scalar Network.dyn_peer[131] 	lookupHopsSig:mean 	15.692307692308
scalar Network.dyn_peer[132] 	lookupTimeSig:mean 	2.825
scalar Network.dyn_peer[132] 	lookupStabilitySig:mean 	0.94966041576117
scalar Network.dyn_peer[132] 	lookupHopsSig:mean 	27.3125
scalar Network.dyn_peer[133] 	lookupTimeSig:mean 	1.9583333333333
scalar Network.dyn_peer[133] 	lookupStabilitySig:mean 	0.92694330882902
scalar Network.dyn_peer[133] 	lookupHopsSig:mean 	18.666666666667
scalar Network.dyn_peer[134] 	lookupTimeSig:mean 	2.4111111111111
scalar Network.dyn_peer[134] 	lookupStabilitySig:mean 	0.9582412331365
scalar Network.dyn_peer[134] 	lookupHopsSig:mean 	23.166666666667
scalar Network.dyn_peer[135] 	lookupTimeSig:mean 	2.4125
scalar Network.dyn_peer[135] 	lookupStabilitySig:mean 	0.94418954430148
scalar Network.dyn_peer[135] 	lookupHopsSig:mean 	23.1875
scalar Network.dyn_peer[136] 	lookupTimeSig:mean 	3.1533333333333
scalar Network.dyn_peer[136] 	lookupStabilitySig:mean 	0.9336350362127
scalar Network.dyn_peer[136] 	lookupHopsSig:mean 	30.6
scalar Network.dyn_peer[137] 	lookupTimeSig:mean 	2.75625
scalar Network.dyn_peer[137] 	lookupStabilitySig:mean 	0.93560295458883
scalar Network.dyn_peer[137] 	lookupHopsSig:mean 	26.625
scalar Network.dyn_peer[138] 	lookupTimeSig:mean 	2.6428571428571
scalar Network.dyn_peer[138] 	lookupStabilitySig:mean 	0.94352855147528
scalar Network.dyn_peer[138] 	lookupHopsSig:mean 	25.5
scalar Network.dyn_peer[139] 	lookupTimeSig:mean 	2.8826086956522
scalar Network.dyn_peer[139] 	lookupStabilitySig:mean 	0.95902009101828
scalar Network.dyn_peer[139] 	lookupHopsSig:mean 	27.869565217391
scalar Network.dyn_peer[140] 	lookupTimeSig:mean 	2.5181818181818
scalar Network.dyn_peer[140] 	lookupStabilitySig:mean 	0.92454039606012
scalar Network.dyn_peer[140] 	lookupHopsSig:mean 	24.272727272727
scalar Network.dyn_peer[141] 	lookupTimeSig:mean 	2.6222222222222
scalar Network.dyn_peer[141] 	lookupStabilitySig:mean 	0.94469432957703
scalar Network.dyn_peer[141] 	lookupHopsSig:mean 	25.277777777778
scalar Network.dyn_peer[142] 	lookupTimeSig:mean 	2.995
scalar Network.dyn_peer[142] 	lookupStabilitySig:mean 	0.95450529603404
scalar Network.dyn_peer[142] 	lookupHopsSig:mean 	29
scalar Network.dyn_peer[143] 	lookupTimeSig:mean 	1.3875
scalar Network.dyn_peer[143] 	lookupStabilitySig:mean 	0.92672828370996
scalar Network.dyn_peer[143] 	lookupHopsSig:mean 	13
scalar Network.dyn_peer[144] 	lookupTimeSig:mean 	1.9857142857143
scalar Network.dyn_peer[144] 	lookupStabilitySig:mean 	0.94130685739219
scalar Network.dyn_peer[144] 	lookupHopsSig:mean 	18.928571428571
scalar Network.dyn_peer[145] 	lookupTimeSig:mean 	1.575
scalar Network.dyn_peer[145] 	lookupStabilitySig:mean 	0.93343323247973
scalar Network.dyn_peer[145] 	lookupHopsSig:mean 	14.833333333333
scalar Network.dyn_peer[146] 	lookupTimeSig:mean 	2.4733333333333
scalar Network.dyn_peer[146] 	lookupStabilitySig:mean 	0.94059179617713
scalar Network.dyn_peer[146] 	lookupHopsSig:mean 	23.8
scalar Network.dyn_peer[147] 	lookupTimeSig:mean 	2.54
scalar Network.dyn_peer[147] 	lookupStabilitySig:mean 	0.93488608722885
scalar Network.dyn_peer[147] 	lookupHopsSig:mean 	24.466666666667
scalar Network.dyn_peer[148] 	lookupTimeSig:mean 	2.5
scalar Network.dyn_peer[148] 	lookupStabilitySig:mean 	0.91989186452702
scalar Network.dyn_peer[148] 	lookupHopsSig:mean 	24.1
scalar Network.dyn_peer[149] 	lookupTimeSig:mean 	2.4833333333333
scalar Network.dyn_peer[149] 	lookupStabilitySig:mean 	0.95636514440412
scalar Network.dyn_peer[149] 	lookupHopsSig:mean 	23.875
scalar Network.dyn_peer[150] 	lookupTimeSig:mean 	3.7769230769231
scalar Network.dyn_peer[150] 	lookupStabilitySig:mean 	0.94541628845036
scalar Network.dyn_peer[150] 	lookupHopsSig:mean 	36.846153846154
scalar Network.dyn_peer[151] 	lookupTimeSig:mean 	2.4363636363636
scalar Network.dyn_peer[151] 	lookupStabilitySig:mean 	0.93984099545262
scalar Network.dyn_peer[151] 	lookupHopsSig:mean 	23.454545454545
scalar Network.dyn_peer[152] 	lookupTimeSig:mean 	1.9666666666667
scalar Network.dyn_peer[152] 	lookupStabilitySig:mean 	0.94084866412838
scalar Network.dyn_peer[152] 	lookupHopsSig:mean 	18.75
scalar Network.dyn_peer[153] 	lookupTimeSig:mean 	2.2
scalar Network.dyn_peer[153] 	lookupStabilitySig:mean 	0.93907615679006
scalar Network.dyn_peer[153] 	lookupHopsSig:mean 	21.066666666667
scalar Network.dyn_peer[154] 	lookupTimeSig:mean 	2.4642857142857
scalar Network.dyn_peer[154] 	lookupStabilitySig:mean 	0.93713588387306
scalar Network.dyn_peer[154] 	lookupHopsSig:mean 	23.714285714286
scalar Network.dyn_peer[155] 	lookupTimeSig:mean 	1.6809523809524
scalar Network.dyn_peer[155] 	lookupStabilitySig:mean 	0.96039080599855
scalar Network.dyn_peer[155] 	lookupHopsSig:mean 	15.857142857143
scalar Network.dyn_peer[156] 	lookupTimeSig:mean 	2.8214285714286
scalar Network.dyn_peer[156] 	lookupStabilitySig:mean 	0.9376777153063
scalar Network.dyn_peer[156] 	lookupHopsSig:mean 	27.285714285714
scalar Network.dyn_peer[157] 	lookupTimeSig:mean 	2.5263157894737
scalar Network.dyn_peer[157] 	lookupStabilitySig:mean 	0.95877228961571
scalar Network.dyn_peer[157] 	lookupHopsSig:mean 	24.315789473684
scalar Network.dyn_peer[158] 	lookupTimeSig:mean 	2.4736842105263
scalar Network.dyn_peer[158] 	lookupStabilitySig:mean 	0.95183811505864
scalar Network.dyn_peer[158] 	lookupHopsSig:mean 	23.789473684211
scalar Network.dyn_peer[159] 	lookupTimeSig:mean 	1.925
scalar Network.dyn_peer[159] 	lookupStabilitySig:mean 	0.94726129326349
scalar Network.dyn_peer[159] 	lookupHopsSig:mean 	18.333333333333
scalar Network.dyn_peer[160] 	lookupTimeSig:mean 	2.1363636363636
scalar Network.dyn_peer[160] 	lookupStabilitySig:mean 	0.92486611719836
scalar Network.dyn_peer[160] 	lookupHopsSig:mean 	20.454545454545
scalar Network.dyn_peer[161] 	lookupTimeSig:mean 	3.2846153846154
scalar Network.dyn_peer[161] 	lookupStabilitySig:mean 	0.94235673897828
scalar Network.dyn_peer[161] 	lookupHopsSig:mean 	31.923076923077
scalar Network.dyn_peer[162] 	lookupTimeSig:mean 	1.6
scalar Network.dyn_peer[162] 	lookupStabilitySig:mean 	0.93080525312366
scalar Network.dyn_peer[162] 	lookupHopsSig:mean 	15.111111111111
scalar Network.dyn_peer[163] 	lookupTimeSig:mean 	2.35
scalar Network.dyn_peer[163] 	lookupStabilitySig:mean 	0.94645422513713
scalar Network.dyn_peer[163] 	lookupHopsSig:mean 	22.5625
scalar Network.dyn_peer[164] 	lookupTimeSig:mean 	3.2428571428571
scalar Network.dyn_peer[164] 	lookupStabilitySig:mean 	0.95889590446105
scalar Network.dyn_peer[164] 	lookupHopsSig:mean 	31.5
scalar Network.dyn_peer[165] 	lookupTimeSig:mean 	2.6764705882353
scalar Network.dyn_peer[165] 	lookupStabilitySig:mean 	0.94735985935447
scalar Network.dyn_peer[165] 	lookupHopsSig:mean 	25.823529411765
scalar Network.dyn_peer[166] 	lookupTimeSig:mean 	3.3
scalar Network.dyn_peer[166] 	lookupStabilitySig:mean 	0.96043395203305
scalar Network.dyn_peer[166] 	lookupHopsSig:mean 	32.05
scalar Network.dyn_peer[167] 	lookupTimeSig:mean 	3.0764705882353
scalar Network.dyn_peer[167] 	lookupStabilitySig:mean 	0.95354597495102
scalar Network.dyn_peer[167] 	lookupHopsSig:mean 	29.823529411765
scalar Network.dyn_peer[168] 	lookupTimeSig:mean 	2.8777777777778
scalar Network.dyn_peer[168] 	lookupStabilitySig:mean 	0.92972095807393
scalar Network.dyn_peer[168] 	lookupHopsSig:mean 	27.888888888889
scalar Network.dyn_peer[169] 	lookupTimeSig:mean 	2.3714285714286
scalar Network.dyn_peer[169] 	lookupStabilitySig:mean 	0.94264754609737
scalar Network.dyn_peer[169] 	lookupHopsSig:mean 	22.785714285714
scalar Network.dyn_peer[170] 	lookupTimeSig:mean 	2.2142857142857
scalar Network.dyn_peer[170] 	lookupStabilitySig:mean 	0.88988772753094
scalar Network.dyn_peer[170] 	lookupHopsSig:mean 	21.285714285714
scalar Network.dyn_peer[171] 	lookupTimeSig:mean 	2.6333333333333
scalar Network.dyn_peer[171] 	lookupStabilitySig:mean 	0.93182079210722
scalar Network.dyn_peer[171] 	lookupHopsSig:mean 	25.416666666667
scalar Network.dyn_peer[172] 	lookupTimeSig:mean 	2.9909090909091
scalar Network.dyn_peer[172] 	lookupStabilitySig:mean 	0.92489549737762
scalar Network.dyn_peer[172] 	lookupHopsSig:mean 	29
scalar Network.dyn_peer[173] 	lookupTimeSig:mean 	1.6875
scalar Network.dyn_peer[173] 	lookupStabilitySig:mean 	0.95089203037787
scalar Network.dyn_peer[173] 	lookupHopsSig:mean 	15.9375
scalar Network.dyn_peer[174] 	lookupTimeSig:mean 	3.6230769230769
scalar Network.dyn_peer[174] 	lookupStabilitySig:mean 	0.94134521763772
scalar Network.dyn_peer[174] 	lookupHopsSig:mean 	35.307692307692
scalar Network.dyn_peer[175] 	lookupTimeSig:mean 	3.20625
scalar Network.dyn_peer[175] 	lookupStabilitySig:mean 	0.94989440898644
scalar Network.dyn_peer[175] 	lookupHopsSig:mean 	31.125
scalar Network.dyn_peer[176] 	lookupTimeSig:mean 	3.1076923076923
scalar Network.dyn_peer[176] 	lookupStabilitySig:mean 	0.94885551080538
scalar Network.dyn_peer[176] 	lookupHopsSig:mean 	30.153846153846
scalar Network.dyn_peer[177] 	lookupTimeSig:mean 	4.23125
scalar Network.dyn_peer[177] 	lookupStabilitySig:mean 	0.94458898968878
scalar Network.dyn_peer[177] 	lookupHopsSig:mean 	41.375
scalar Network.dyn_peer[178] 	lookupTimeSig:mean 	2.7538461538462
scalar Network.dyn_peer[178] 	lookupStabilitySig:mean 	0.93134000632339
scalar Network.dyn_peer[178] 	lookupHopsSig:mean 	26.615384615385
scalar Network.dyn_peer[179] 	lookupTimeSig:mean 	2.4857142857143
scalar Network.dyn_peer[179] 	lookupStabilitySig:mean 	0.94321185302189
scalar Network.dyn_peer[179] 	lookupHopsSig:mean 	23.928571428571
scalar Network.dyn_peer[180] 	lookupTimeSig:mean 	2.9583333333333
scalar Network.dyn_peer[180] 	lookupStabilitySig:mean 	0.92697365845864
scalar Network.dyn_peer[180] 	lookupHopsSig:mean 	28.666666666667
scalar Network.dyn_peer[181] 	lookupTimeSig:mean 	2.60625
scalar Network.dyn_peer[181] 	lookupStabilitySig:mean 	0.95803021058964
scalar Network.dyn_peer[181] 	lookupHopsSig:mean 	25.125
scalar Network.dyn_peer[182] 	lookupTimeSig:mean 	2.7235294117647
scalar Network.dyn_peer[182] 	lookupStabilitySig:mean 	0.95529566323111
scalar Network.dyn_peer[182] 	lookupHopsSig:mean 	26.294117647059
scalar Network.dyn_peer[183] 	lookupTimeSig:mean 	2.82
scalar Network.dyn_peer[183] 	lookupStabilitySig:mean 	0.9523260109437
scalar Network.dyn_peer[183] 	lookupHopsSig:mean 	27.266666666667
scalar Network.dyn_peer[184] 	lookupTimeSig:mean 	2.7857142857143
scalar Network.dyn_peer[184] 	lookupStabilitySig:mean 	0.94598304265777
scalar Network.dyn_peer[184] 	lookupHopsSig:mean 	26.928571428571
scalar Network.dyn_peer[185] 	lookupTimeSig:mean 	2.715
scalar Network.dyn_peer[185] 	lookupStabilitySig:mean 	0.96531203284394
scalar Network.dyn_peer[185] 	lookupHopsSig:mean 	26.2
scalar Network.dyn_peer[186] 	lookupTimeSig:mean 	2.4111111111111
scalar Network.dyn_peer[186] 	lookupStabilitySig:mean 	0.93039665878233
scalar Network.dyn_peer[186] 	lookupHopsSig:mean 	23.222222222222
scalar Network.dyn_peer[187] 	lookupTimeSig:mean 	2.1818181818182
scalar Network.dyn_peer[187] 	lookupStabilitySig:mean 	0.94556057296524
scalar Network.dyn_peer[187] 	lookupHopsSig:mean 	20.909090909091
scalar Network.dyn_peer[188] 	lookupTimeSig:mean 	2.2411764705882
scalar Network.dyn_peer[188] 	lookupStabilitySig:mean 	0.96117785845554
scalar Network.dyn_peer[188] 	lookupHopsSig:mean 	21.470588235294
scalar Network.dyn_peer[189] 	lookupTimeSig:mean 	2.75
scalar Network.dyn_peer[189] 	lookupStabilitySig:mean 	0.94007660255634
scalar Network.dyn_peer[189] 	lookupHopsSig:mean 	26.571428571429
scalar Network.dyn_peer[190] 	lookupTimeSig:mean 	2.6384615384615
scalar Network.dyn_peer[190] 	lookupStabilitySig:mean 	0.97175620454184
scalar Network.dyn_peer[190] 	lookupHopsSig:mean 	25.423076923077
scalar Network.dyn_peer[191] 	lookupTimeSig:mean 	2.4
scalar Network.dyn_peer[191] 	lookupStabilitySig:mean 	0.93827387258749
scalar Network.dyn_peer[191] 	lookupHopsSig:mean 	23.090909090909
scalar Network.dyn_peer[192] 	lookupTimeSig:mean 	1.175
scalar Network.dyn_peer[192] 	lookupStabilitySig:mean 	0.88268894422799
scalar Network.dyn_peer[192] 	lookupHopsSig:mean 	11
scalar Network.dyn_peer[193] 	lookupTimeSig:mean 	2.8875
scalar Network.dyn_peer[193] 	lookupStabilitySig:mean 	0.91162434348371
scalar Network.dyn_peer[193] 	lookupHopsSig:mean 	28
scalar Network.dyn_peer[194] 	lookupTimeSig:mean 	3.5608695652174
scalar Network.dyn_peer[194] 	lookupStabilitySig:mean 	0.96744673031018
scalar Network.dyn_peer[194] 	lookupHopsSig:mean 	34.652173913043
scalar Network.dyn_peer[195] 	lookupTimeSig:mean 	3.1785714285714
scalar Network.dyn_peer[195] 	lookupStabilitySig:mean 	0.9405351665004
scalar Network.dyn_peer[195] 	lookupHopsSig:mean 	30.857142857143
scalar Network.dyn_peer[196] 	lookupTimeSig:mean 	2.8692307692308
scalar Network.dyn_peer[196] 	lookupStabilitySig:mean 	0.95047560773002
scalar Network.dyn_peer[196] 	lookupHopsSig:mean 	27.769230769231
scalar Network.dyn_peer[197] 	lookupTimeSig:mean 	2.3833333333333
scalar Network.dyn_peer[197] 	lookupStabilitySig:mean 	0.94702539422239
scalar Network.dyn_peer[197] 	lookupHopsSig:mean 	22.916666666667
scalar Network.dyn_peer[198] 	lookupTimeSig:mean 	2.6333333333333
scalar Network.dyn_peer[198] 	lookupStabilitySig:mean 	0.93886244855821
scalar Network.dyn_peer[198] 	lookupHopsSig:mean 	25.444444444444
scalar Network.dyn_peer[199] 	lookupTimeSig:mean 	2.5684210526316
scalar Network.dyn_peer[199] 	lookupStabilitySig:mean 	0.96269747805108
scalar Network.dyn_peer[199] 	lookupHopsSig:mean 	24.736842105263
scalar Network.dyn_peer[200] 	lookupTimeSig:mean 	2.6933333333333
scalar Network.dyn_peer[200] 	lookupStabilitySig:mean 	0.95621298321833
scalar Network.dyn_peer[200] 	lookupHopsSig:mean 	26
scalar Network.dyn_peer[201] 	lookupTimeSig:mean 	1.74
scalar Network.dyn_peer[201] 	lookupStabilitySig:mean 	0.94273637998849
scalar Network.dyn_peer[201] 	lookupHopsSig:mean 	16.5
scalar Network.dyn_peer[202] 	lookupTimeSig:mean 	1.9380952380952
scalar Network.dyn_peer[202] 	lookupStabilitySig:mean 	0.96211629476221
scalar Network.dyn_peer[202] 	lookupHopsSig:mean 	18.428571428571
scalar Network.dyn_peer[203] 	lookupTimeSig:mean 	2.0235294117647
scalar Network.dyn_peer[203] 	lookupStabilitySig:mean 	0.95812588052222
scalar Network.dyn_peer[203] 	lookupHopsSig:mean 	19.294117647059
scalar Network.dyn_peer[204] 	lookupTimeSig:mean 	3.0583333333333
scalar Network.dyn_peer[204] 	lookupStabilitySig:mean 	0.94572291643514
scalar Network.dyn_peer[204] 	lookupHopsSig:mean 	29.666666666667
scalar Network.dyn_peer[205] 	lookupTimeSig:mean 	2.695
scalar Network.dyn_peer[205] 	lookupStabilitySig:mean 	0.95730429996038
scalar Network.dyn_peer[205] 	lookupHopsSig:mean 	26
scalar Network.dyn_peer[206] 	lookupTimeSig:mean 	3
scalar Network.dyn_peer[206] 	lookupStabilitySig:mean 	0.93702460270883
scalar Network.dyn_peer[206] 	lookupHopsSig:mean 	29.090909090909
scalar Network.dyn_peer[207] 	lookupTimeSig:mean 	3.0304347826087
scalar Network.dyn_peer[207] 	lookupStabilitySig:mean 	0.96356303452352
scalar Network.dyn_peer[207] 	lookupHopsSig:mean 	29.347826086957
scalar Network.dyn_peer[208] 	lookupTimeSig:mean 	2
scalar Network.dyn_peer[208] 	lookupStabilitySig:mean 	0.95411458603022
scalar Network.dyn_peer[208] 	lookupHopsSig:mean 	19.090909090909
scalar Network.dyn_peer[209] 	lookupTimeSig:mean 	2.1705882352941
scalar Network.dyn_peer[209] 	lookupStabilitySig:mean 	0.95709963723579
scalar Network.dyn_peer[209] 	lookupHopsSig:mean 	20.764705882353
scalar Network.dyn_peer[210] 	lookupTimeSig:mean 	3.265
scalar Network.dyn_peer[210] 	lookupStabilitySig:mean 	0.95830028498895
scalar Network.dyn_peer[210] 	lookupHopsSig:mean 	31.7
scalar Network.dyn_peer[211] 	lookupTimeSig:mean 	2.135
scalar Network.dyn_peer[211] 	lookupStabilitySig:mean 	0.96607658541761
scalar Network.dyn_peer[211] 	lookupHopsSig:mean 	20.4
scalar Network.dyn_peer[212] 	lookupTimeSig:mean 	2.1555555555556
scalar Network.dyn_peer[212] 	lookupStabilitySig:mean 	0.93245153998335
scalar Network.dyn_peer[212] 	lookupHopsSig:mean 	20.666666666667
scalar Network.dyn_peer[213] 	lookupTimeSig:mean 	3.1136363636364
scalar Network.dyn_peer[213] 	lookupStabilitySig:mean 	0.96806907892989
scalar Network.dyn_peer[213] 	lookupHopsSig:mean 	30.181818181818
scalar Network.dyn_peer[214] 	lookupTimeSig:mean 	2.0714285714286
scalar Network.dyn_peer[214] 	lookupStabilitySig:mean 	0.94678122304114
scalar Network.dyn_peer[214] 	lookupHopsSig:mean 	19.785714285714
scalar Network.dyn_peer[215] 	lookupTimeSig:mean 	1.9083333333333
scalar Network.dyn_peer[215] 	lookupStabilitySig:mean 	0.95622466141746
scalar Network.dyn_peer[215] 	lookupHopsSig:mean 	18.166666666667
scalar Network.dyn_peer[216] 	lookupTimeSig:mean 	1.9384615384615
scalar Network.dyn_peer[216] 	lookupStabilitySig:mean 	0.95002150994081
scalar Network.dyn_peer[216] 	lookupHopsSig:mean 	18.461538461538
scalar Network.dyn_peer[217] 	lookupTimeSig:mean 	2.7294117647059
scalar Network.dyn_peer[217] 	lookupStabilitySig:mean 	0.96702972150353
scalar Network.dyn_peer[217] 	lookupHopsSig:mean 	26.352941176471
scalar Network.dyn_peer[218] 	lookupTimeSig:mean 	2.7222222222222
scalar Network.dyn_peer[218] 	lookupStabilitySig:mean 	0.94580939344855
scalar Network.dyn_peer[218] 	lookupHopsSig:mean 	26.333333333333
scalar Network.dyn_peer[219] 	lookupTimeSig:mean 	2.53
scalar Network.dyn_peer[219] 	lookupStabilitySig:mean 	0.95379400309175
scalar Network.dyn_peer[219] 	lookupHopsSig:mean 	24.4
scalar Network.dyn_peer[220] 	lookupTimeSig:mean 	2.0933333333333
scalar Network.dyn_peer[220] 	lookupStabilitySig:mean 	0.96042364625415
scalar Network.dyn_peer[220] 	lookupHopsSig:mean 	20
scalar Network.dyn_peer[221] 	lookupTimeSig:mean 	2.2142857142857
scalar Network.dyn_peer[221] 	lookupStabilitySig:mean 	0.95035869134257
scalar Network.dyn_peer[221] 	lookupHopsSig:mean 	21.214285714286
scalar Network.dyn_peer[222] 	lookupTimeSig:mean 	2.44
scalar Network.dyn_peer[222] 	lookupStabilitySig:mean 	0.95037269652821
scalar Network.dyn_peer[222] 	lookupHopsSig:mean 	23.5
scalar Network.dyn_peer[223] 	lookupTimeSig:mean 	2.9875
scalar Network.dyn_peer[223] 	lookupStabilitySig:mean 	0.9541916558519
scalar Network.dyn_peer[223] 	lookupHopsSig:mean 	28.9375
scalar Network.dyn_peer[224] 	lookupTimeSig:mean 	3.3277777777778
scalar Network.dyn_peer[224] 	lookupStabilitySig:mean 	0.95742064970869
scalar Network.dyn_peer[224] 	lookupHopsSig:mean 	32.333333333333
scalar Network.dyn_peer[225] 	lookupTimeSig:mean 	2.1555555555556
scalar Network.dyn_peer[225] 	lookupStabilitySig:mean 	0.94372569179783
scalar Network.dyn_peer[225] 	lookupHopsSig:mean 	20.666666666667
scalar Network.dyn_peer[226] 	lookupTimeSig:mean 	1.8866666666667
scalar Network.dyn_peer[226] 	lookupStabilitySig:mean 	0.95460391771048
scalar Network.dyn_peer[226] 	lookupHopsSig:mean 	17.933333333333
scalar Network.dyn_peer[227] 	lookupTimeSig:mean 	2.9722222222222
scalar Network.dyn_peer[227] 	lookupStabilitySig:mean 	0.96181217361138
scalar Network.dyn_peer[227] 	lookupHopsSig:mean 	28.777777777778
scalar Network.dyn_peer[228] 	lookupTimeSig:mean 	2.16
scalar Network.dyn_peer[228] 	lookupStabilitySig:mean 	0.94091144064441
scalar Network.dyn_peer[228] 	lookupHopsSig:mean 	20.7
scalar Network.dyn_peer[229] 	lookupTimeSig:mean 	3.0733333333333
scalar Network.dyn_peer[229] 	lookupStabilitySig:mean 	0.95959332874045
scalar Network.dyn_peer[229] 	lookupHopsSig:mean 	29.8
scalar Network.dyn_peer[230] 	lookupTimeSig:mean 	1.3727272727273
scalar Network.dyn_peer[230] 	lookupStabilitySig:mean 	0.9538778884929
scalar Network.dyn_peer[230] 	lookupHopsSig:mean 	12.818181818182
scalar Network.dyn_peer[231] 	lookupTimeSig:mean 	1.8555555555556
scalar Network.dyn_peer[231] 	lookupStabilitySig:mean 	0.96114480081532
scalar Network.dyn_peer[231] 	lookupHopsSig:mean 	17.666666666667
scalar Network.dyn_peer[232] 	lookupTimeSig:mean 	3.6058823529412
scalar Network.dyn_peer[232] 	lookupStabilitySig:mean 	0.9525872429778
scalar Network.dyn_peer[232] 	lookupHopsSig:mean 	35.117647058824
scalar Network.dyn_peer[233] 	lookupTimeSig:mean 	2.3428571428571
scalar Network.dyn_peer[233] 	lookupStabilitySig:mean 	0.9200383829219
scalar Network.dyn_peer[233] 	lookupHopsSig:mean 	22.571428571429
scalar Network.dyn_peer[234] 	lookupTimeSig:mean 	1.9
scalar Network.dyn_peer[234] 	lookupStabilitySig:mean 	0.95796868029283
scalar Network.dyn_peer[234] 	lookupHopsSig:mean 	18.1
scalar Network.dyn_peer[235] 	lookupTimeSig:mean 	2.5470588235294
scalar Network.dyn_peer[235] 	lookupStabilitySig:mean 	0.96134373421014
scalar Network.dyn_peer[235] 	lookupHopsSig:mean 	24.529411764706
scalar Network.dyn_peer[236] 	lookupTimeSig:mean 	2.8823529411765
scalar Network.dyn_peer[236] 	lookupStabilitySig:mean 	0.95789405835025
scalar Network.dyn_peer[236] 	lookupHopsSig:mean 	27.882352941176
scalar Network.dyn_peer[237] 	lookupTimeSig:mean 	3.7166666666667
scalar Network.dyn_peer[237] 	lookupStabilitySig:mean 	0.94674937038993
scalar Network.dyn_peer[237] 	lookupHopsSig:mean 	36.25
scalar Network.dyn_peer[238] 	lookupTimeSig:mean 	2.7333333333333
scalar Network.dyn_peer[238] 	lookupStabilitySig:mean 	0.94403939554468
scalar Network.dyn_peer[238] 	lookupHopsSig:mean 	26.444444444444
scalar Network.dyn_peer[239] 	lookupTimeSig:mean 	2.4909090909091
scalar Network.dyn_peer[239] 	lookupStabilitySig:mean 	0.95256170357408
scalar Network.dyn_peer[239] 	lookupHopsSig:mean 	24
scalar Network.dyn_peer[240] 	lookupTimeSig:mean 	2.5272727272727
scalar Network.dyn_peer[240] 	lookupStabilitySig:mean 	0.96015711467374
scalar Network.dyn_peer[240] 	lookupHopsSig:mean 	24.363636363636
scalar Network.dyn_peer[241] 	lookupTimeSig:mean 	2.1705882352941
scalar Network.dyn_peer[241] 	lookupStabilitySig:mean 	0.97154304770725
scalar Network.dyn_peer[241] 	lookupHopsSig:mean 	20.764705882353
scalar Network.dyn_peer[242] 	lookupTimeSig:mean 	4.2555555555556
scalar Network.dyn_peer[242] 	lookupStabilitySig:mean 	0.95281055890438
scalar Network.dyn_peer[242] 	lookupHopsSig:mean 	41.666666666667
scalar Network.dyn_peer[243] 	lookupTimeSig:mean 	2.1666666666667
scalar Network.dyn_peer[243] 	lookupStabilitySig:mean 	0.96482587706608
scalar Network.dyn_peer[243] 	lookupHopsSig:mean 	20.722222222222
scalar Network.dyn_peer[244] 	lookupTimeSig:mean 	2.8066666666667
scalar Network.dyn_peer[244] 	lookupStabilitySig:mean 	0.95509396803876
scalar Network.dyn_peer[244] 	lookupHopsSig:mean 	27.133333333333
scalar Network.dyn_peer[245] 	lookupTimeSig:mean 	2.375
scalar Network.dyn_peer[245] 	lookupStabilitySig:mean 	0.96491200367454
scalar Network.dyn_peer[245] 	lookupHopsSig:mean 	22.8
scalar Network.dyn_peer[246] 	lookupTimeSig:mean 	2.0777777777778
scalar Network.dyn_peer[246] 	lookupStabilitySig:mean 	0.95352967135194
scalar Network.dyn_peer[246] 	lookupHopsSig:mean 	19.888888888889
scalar Network.dyn_peer[247] 	lookupTimeSig:mean 	1.6375
scalar Network.dyn_peer[247] 	lookupStabilitySig:mean 	0.96610163335208
scalar Network.dyn_peer[247] 	lookupHopsSig:mean 	15.4375
scalar Network.dyn_peer[248] 	lookupTimeSig:mean 	3.8
scalar Network.dyn_peer[248] 	lookupStabilitySig:mean 	0.95917134801857
scalar Network.dyn_peer[248] 	lookupHopsSig:mean 	37.058823529412
scalar Network.dyn_peer[249] 	lookupTimeSig:mean 	2.725
scalar Network.dyn_peer[249] 	lookupStabilitySig:mean 	0.96578048437368
scalar Network.dyn_peer[249] 	lookupHopsSig:mean 	26.3
scalar Network.dyn_peer[250] 	lookupTimeSig:mean 	2.6647058823529
scalar Network.dyn_peer[250] 	lookupStabilitySig:mean 	0.96301718857071
scalar Network.dyn_peer[250] 	lookupHopsSig:mean 	25.705882352941
scalar Network.dyn_peer[251] 	lookupTimeSig:mean 	2.2444444444444
scalar Network.dyn_peer[251] 	lookupStabilitySig:mean 	0.96544438683324
scalar Network.dyn_peer[251] 	lookupHopsSig:mean 	21.5
scalar Network.dyn_peer[252] 	lookupTimeSig:mean 	2.2857142857143
scalar Network.dyn_peer[252] 	lookupStabilitySig:mean 	0.95481924802464
scalar Network.dyn_peer[252] 	lookupHopsSig:mean 	21.928571428571
scalar Network.dyn_peer[253] 	lookupTimeSig:mean 	1.9785714285714
scalar Network.dyn_peer[253] 	lookupStabilitySig:mean 	0.95870367610561
scalar Network.dyn_peer[253] 	lookupHopsSig:mean 	18.857142857143
scalar Network.dyn_peer[254] 	lookupTimeSig:mean 	3.4176470588235
scalar Network.dyn_peer[254] 	lookupStabilitySig:mean 	0.9559139044791
scalar Network.dyn_peer[254] 	lookupHopsSig:mean 	33.235294117647
scalar Network.dyn_peer[255] 	lookupTimeSig:mean 	1.81
scalar Network.dyn_peer[255] 	lookupStabilitySig:mean 	0.94622569195926
scalar Network.dyn_peer[255] 	lookupHopsSig:mean 	17.2
scalar Network.dyn_peer[256] 	lookupTimeSig:mean 	2.3235294117647
scalar Network.dyn_peer[256] 	lookupStabilitySig:mean 	0.96080897915561
scalar Network.dyn_peer[256] 	lookupHopsSig:mean 	22.294117647059
scalar Network.dyn_peer[257] 	lookupTimeSig:mean 	2.0764705882353
scalar Network.dyn_peer[257] 	lookupStabilitySig:mean 	0.96388661466977
scalar Network.dyn_peer[257] 	lookupHopsSig:mean 	19.823529411765
scalar Network.dyn_peer[258] 	lookupTimeSig:mean 	1.64
scalar Network.dyn_peer[258] 	lookupStabilitySig:mean 	0.91467080041766
scalar Network.dyn_peer[258] 	lookupHopsSig:mean 	15.6
scalar Network.dyn_peer[259] 	lookupTimeSig:mean 	2.9142857142857
scalar Network.dyn_peer[259] 	lookupStabilitySig:mean 	0.96402002122652
scalar Network.dyn_peer[259] 	lookupHopsSig:mean 	28.214285714286
scalar Network.dyn_peer[260] 	lookupTimeSig:mean 	1.9909090909091
scalar Network.dyn_peer[260] 	lookupStabilitySig:mean 	0.95953742280306
scalar Network.dyn_peer[260] 	lookupHopsSig:mean 	19
scalar Network.dyn_peer[261] 	lookupTimeSig:mean 	3.4727272727273
scalar Network.dyn_peer[261] 	lookupStabilitySig:mean 	0.94791280622171
scalar Network.dyn_peer[261] 	lookupHopsSig:mean 	33.818181818182
scalar Network.dyn_peer[262] 	lookupTimeSig:mean 	2.33125
scalar Network.dyn_peer[262] 	lookupStabilitySig:mean 	0.96276525701251
scalar Network.dyn_peer[262] 	lookupHopsSig:mean 	22.375
scalar Network.dyn_peer[263] 	lookupTimeSig:mean 	2.8464285714286
scalar Network.dyn_peer[263] 	lookupStabilitySig:mean 	0.97521271422738
scalar Network.dyn_peer[263] 	lookupHopsSig:mean 	27.5
scalar Network.dyn_peer[264] 	lookupTimeSig:mean 	4
scalar Network.dyn_peer[264] 	lookupStabilitySig:mean 	0.9531151726221
scalar Network.dyn_peer[264] 	lookupHopsSig:mean 	39.066666666667
scalar Network.dyn_peer[265] 	lookupTimeSig:mean 	1.925
scalar Network.dyn_peer[265] 	lookupStabilitySig:mean 	0.96213914167311
scalar Network.dyn_peer[265] 	lookupHopsSig:mean 	18.3125
scalar Network.dyn_peer[266] 	lookupTimeSig:mean 	1.6470588235294
scalar Network.dyn_peer[266] 	lookupStabilitySig:mean 	0.9684237621122
scalar Network.dyn_peer[266] 	lookupHopsSig:mean 	15.529411764706
scalar Network.dyn_peer[267] 	lookupTimeSig:mean 	2.8157894736842
scalar Network.dyn_peer[267] 	lookupStabilitySig:mean 	0.9676890776701
scalar Network.dyn_peer[267] 	lookupHopsSig:mean 	27.210526315789
scalar Network.dyn_peer[268] 	lookupTimeSig:mean 	2.8
scalar Network.dyn_peer[268] 	lookupStabilitySig:mean 	0.94956221689724
scalar Network.dyn_peer[268] 	lookupHopsSig:mean 	27.090909090909
scalar Network.dyn_peer[269] 	lookupTimeSig:mean 	1.1
scalar Network.dyn_peer[269] 	lookupStabilitySig:mean 	0.91533176600933
scalar Network.dyn_peer[269] 	lookupHopsSig:mean 	10.25
scalar Network.dyn_peer[270] 	lookupTimeSig:mean 	2.4222222222222
scalar Network.dyn_peer[270] 	lookupStabilitySig:mean 	0.96034648184044
scalar Network.dyn_peer[270] 	lookupHopsSig:mean 	23.333333333333
scalar Network.dyn_peer[271] 	lookupTimeSig:mean 	1.85
scalar Network.dyn_peer[271] 	lookupStabilitySig:mean 	0.96446447004564
scalar Network.dyn_peer[271] 	lookupHopsSig:mean 	17.55
scalar Network.dyn_peer[272] 	lookupTimeSig:mean 	1.7875
scalar Network.dyn_peer[272] 	lookupStabilitySig:mean 	0.95236174319871
scalar Network.dyn_peer[272] 	lookupHopsSig:mean 	17
scalar Network.dyn_peer[273] 	lookupTimeSig:mean 	3.3875
scalar Network.dyn_peer[273] 	lookupStabilitySig:mean 	0.9601738974161
scalar Network.dyn_peer[273] 	lookupHopsSig:mean 	32.9375
scalar Network.dyn_peer[274] 	lookupTimeSig:mean 	2.5222222222222
scalar Network.dyn_peer[274] 	lookupStabilitySig:mean 	0.9602272888749
scalar Network.dyn_peer[274] 	lookupHopsSig:mean 	24.333333333333
scalar Network.dyn_peer[275] 	lookupTimeSig:mean 	2.9736842105263
scalar Network.dyn_peer[275] 	lookupStabilitySig:mean 	0.9651987582053
scalar Network.dyn_peer[275] 	lookupHopsSig:mean 	28.789473684211
scalar Network.dyn_peer[276] 	lookupTimeSig:mean 	2.1095238095238
scalar Network.dyn_peer[276] 	lookupStabilitySig:mean 	0.96912016823799
scalar Network.dyn_peer[276] 	lookupHopsSig:mean 	20.142857142857
scalar Network.dyn_peer[277] 	lookupTimeSig:mean 	2.8
scalar Network.dyn_peer[277] 	lookupStabilitySig:mean 	0.96390370921498
scalar Network.dyn_peer[277] 	lookupHopsSig:mean 	27.071428571429
scalar Network.dyn_peer[278] 	lookupTimeSig:mean 	2.8416666666667
scalar Network.dyn_peer[278] 	lookupStabilitySig:mean 	0.95004994049668
scalar Network.dyn_peer[278] 	lookupHopsSig:mean 	27.5
scalar Network.dyn_peer[279] 	lookupTimeSig:mean 	3.45625
scalar Network.dyn_peer[279] 	lookupStabilitySig:mean 	0.96352815891441
scalar Network.dyn_peer[279] 	lookupHopsSig:mean 	33.625
scalar Network.dyn_peer[280] 	lookupTimeSig:mean 	1.995
scalar Network.dyn_peer[280] 	lookupStabilitySig:mean 	0.97229499926325
scalar Network.dyn_peer[280] 	lookupHopsSig:mean 	19
scalar Network.dyn_peer[281] 	lookupTimeSig:mean 	2.8555555555556
scalar Network.dyn_peer[281] 	lookupStabilitySig:mean 	0.96404146128852
scalar Network.dyn_peer[281] 	lookupHopsSig:mean 	27.611111111111
scalar Network.dyn_peer[282] 	lookupTimeSig:mean 	2.7888888888889
scalar Network.dyn_peer[282] 	lookupStabilitySig:mean 	0.95013728354954
scalar Network.dyn_peer[282] 	lookupHopsSig:mean 	27
scalar Network.dyn_peer[283] 	lookupTimeSig:mean 	2.4636363636364
scalar Network.dyn_peer[283] 	lookupStabilitySig:mean 	0.94988974772224
scalar Network.dyn_peer[283] 	lookupHopsSig:mean 	23.727272727273
scalar Network.dyn_peer[284] 	lookupTimeSig:mean 	3.0125
scalar Network.dyn_peer[284] 	lookupStabilitySig:mean 	0.95965294149937
scalar Network.dyn_peer[284] 	lookupHopsSig:mean 	29.25
scalar Network.dyn_peer[285] 	lookupTimeSig:mean 	1.9647058823529
scalar Network.dyn_peer[285] 	lookupStabilitySig:mean 	0.97477529079633
scalar Network.dyn_peer[285] 	lookupHopsSig:mean 	18.705882352941
scalar Network.dyn_peer[286] 	lookupTimeSig:mean 	2.6411764705882
scalar Network.dyn_peer[286] 	lookupStabilitySig:mean 	0.9664502341355
scalar Network.dyn_peer[286] 	lookupHopsSig:mean 	25.470588235294
scalar Network.dyn_peer[287] 	lookupTimeSig:mean 	2.925
scalar Network.dyn_peer[287] 	lookupStabilitySig:mean 	0.9673929450335
scalar Network.dyn_peer[287] 	lookupHopsSig:mean 	28.3
scalar Network.dyn_peer[288] 	lookupTimeSig:mean 	3.30625
scalar Network.dyn_peer[288] 	lookupStabilitySig:mean 	0.96434947871603
scalar Network.dyn_peer[288] 	lookupHopsSig:mean 	32.125
scalar Network.dyn_peer[289] 	lookupTimeSig:mean 	3.0818181818182
scalar Network.dyn_peer[289] 	lookupStabilitySig:mean 	0.95592351922427
scalar Network.dyn_peer[289] 	lookupHopsSig:mean 	29.909090909091
scalar Network.dyn_peer[290] 	lookupTimeSig:mean 	3.525
scalar Network.dyn_peer[290] 	lookupStabilitySig:mean 	0.91712594009005
scalar Network.dyn_peer[290] 	lookupHopsSig:mean 	34.5
scalar Network.dyn_peer[291] 	lookupTimeSig:mean 	1.995
scalar Network.dyn_peer[291] 	lookupStabilitySig:mean 	0.96960244721267
scalar Network.dyn_peer[291] 	lookupHopsSig:mean 	19
scalar Network.dyn_peer[292] 	lookupTimeSig:mean 	1.4111111111111
scalar Network.dyn_peer[292] 	lookupStabilitySig:mean 	0.94420325062755
scalar Network.dyn_peer[292] 	lookupHopsSig:mean 	13.222222222222
scalar Network.dyn_peer[293] 	lookupTimeSig:mean 	2.85
scalar Network.dyn_peer[293] 	lookupStabilitySig:mean 	0.95878686297995
scalar Network.dyn_peer[293] 	lookupHopsSig:mean 	27.583333333333
scalar Network.dyn_peer[294] 	lookupTimeSig:mean 	2.7666666666667
scalar Network.dyn_peer[294] 	lookupStabilitySig:mean 	0.95642757047123
scalar Network.dyn_peer[294] 	lookupHopsSig:mean 	26.75
scalar Network.dyn_peer[295] 	lookupTimeSig:mean 	3.4769230769231
scalar Network.dyn_peer[295] 	lookupStabilitySig:mean 	0.95413787945962
scalar Network.dyn_peer[295] 	lookupHopsSig:mean 	33.846153846154
scalar Network.dyn_peer[296] 	lookupTimeSig:mean 	3.775
scalar Network.dyn_peer[296] 	lookupStabilitySig:mean 	0.94987719273195
scalar Network.dyn_peer[296] 	lookupHopsSig:mean 	36.833333333333
scalar Network.dyn_peer[297] 	lookupTimeSig:mean 	2.94
scalar Network.dyn_peer[297] 	lookupStabilitySig:mean 	0.96501142493216
scalar Network.dyn_peer[297] 	lookupHopsSig:mean 	28.45
scalar Network.dyn_peer[298] 	lookupTimeSig:mean 	3.575
scalar Network.dyn_peer[298] 	lookupStabilitySig:mean 	0.94965353247244
scalar Network.dyn_peer[298] 	lookupHopsSig:mean 	34.875
scalar Network.dyn_peer[299] 	lookupTimeSig:mean 	2.2166666666667
scalar Network.dyn_peer[299] 	lookupStabilitySig:mean 	0.96948261205883
scalar Network.dyn_peer[299] 	lookupHopsSig:mean 	21.25
scalar Network.dyn_peer[300] 	lookupTimeSig:mean 	3.15
scalar Network.dyn_peer[300] 	lookupStabilitySig:mean 	0.94858327507973
scalar Network.dyn_peer[300] 	lookupHopsSig:mean 	30.583333333333
scalar Network.dyn_peer[301] 	lookupTimeSig:mean 	1.5444444444444
scalar Network.dyn_peer[301] 	lookupStabilitySig:mean 	0.95811803773459
scalar Network.dyn_peer[301] 	lookupHopsSig:mean 	14.555555555556
scalar Network.dyn_peer[302] 	lookupTimeSig:mean 	1.90625
scalar Network.dyn_peer[302] 	lookupStabilitySig:mean 	0.96387821692042
scalar Network.dyn_peer[302] 	lookupHopsSig:mean 	18.125
scalar Network.dyn_peer[303] 	lookupTimeSig:mean 	2.6071428571429
scalar Network.dyn_peer[303] 	lookupStabilitySig:mean 	0.96460451451795
scalar Network.dyn_peer[303] 	lookupHopsSig:mean 	25.142857142857
scalar Network.dyn_peer[304] 	lookupTimeSig:mean 	3.35
scalar Network.dyn_peer[304] 	lookupStabilitySig:mean 	0.94680351309944
scalar Network.dyn_peer[304] 	lookupHopsSig:mean 	32.625
scalar Network.dyn_peer[305] 	lookupTimeSig:mean 	2.1952380952381
scalar Network.dyn_peer[305] 	lookupStabilitySig:mean 	0.96894974978862
scalar Network.dyn_peer[305] 	lookupHopsSig:mean 	21
scalar Network.dyn_peer[306] 	lookupTimeSig:mean 	2.6
scalar Network.dyn_peer[306] 	lookupStabilitySig:mean 	0.93050988100003
scalar Network.dyn_peer[306] 	lookupHopsSig:mean 	25.166666666667
scalar Network.dyn_peer[307] 	lookupTimeSig:mean 	3.4
scalar Network.dyn_peer[307] 	lookupStabilitySig:mean 	0.96466512322271
scalar Network.dyn_peer[307] 	lookupHopsSig:mean 	33.083333333333
scalar Network.dyn_peer[308] 	lookupTimeSig:mean 	2.025
scalar Network.dyn_peer[308] 	lookupStabilitySig:mean 	0.95496962607528
scalar Network.dyn_peer[308] 	lookupHopsSig:mean 	19.333333333333
scalar Network.dyn_peer[309] 	lookupTimeSig:mean 	3.6454545454545
scalar Network.dyn_peer[309] 	lookupStabilitySig:mean 	0.95429780401967
scalar Network.dyn_peer[309] 	lookupHopsSig:mean 	35.545454545455
scalar Network.dyn_peer[310] 	lookupTimeSig:mean 	2.3428571428571
scalar Network.dyn_peer[310] 	lookupStabilitySig:mean 	0.96414901845024
scalar Network.dyn_peer[310] 	lookupHopsSig:mean 	22.5
scalar Network.dyn_peer[311] 	lookupTimeSig:mean 	2.3272727272727
scalar Network.dyn_peer[311] 	lookupStabilitySig:mean 	0.94928517886861
scalar Network.dyn_peer[311] 	lookupHopsSig:mean 	22.363636363636
scalar Network.dyn_peer[312] 	lookupTimeSig:mean 	2.6111111111111
scalar Network.dyn_peer[312] 	lookupStabilitySig:mean 	0.95263070561406
scalar Network.dyn_peer[312] 	lookupHopsSig:mean 	25.222222222222
scalar Network.dyn_peer[313] 	lookupTimeSig:mean 	2.2909090909091
scalar Network.dyn_peer[313] 	lookupStabilitySig:mean 	0.96899000129832
scalar Network.dyn_peer[313] 	lookupHopsSig:mean 	21.954545454545
scalar Network.dyn_peer[314] 	lookupTimeSig:mean 	4.1125
scalar Network.dyn_peer[314] 	lookupStabilitySig:mean 	0.96720901265508
scalar Network.dyn_peer[314] 	lookupHopsSig:mean 	40.1875
scalar Network.dyn_peer[315] 	lookupTimeSig:mean 	2.5923076923077
scalar Network.dyn_peer[315] 	lookupStabilitySig:mean 	0.96082098072825
scalar Network.dyn_peer[315] 	lookupHopsSig:mean 	25
scalar Network.dyn_peer[316] 	lookupTimeSig:mean 	2.4357142857143
scalar Network.dyn_peer[316] 	lookupStabilitySig:mean 	0.95485301082954
scalar Network.dyn_peer[316] 	lookupHopsSig:mean 	23.428571428571
scalar Network.dyn_peer[317] 	lookupTimeSig:mean 	2.2
scalar Network.dyn_peer[317] 	lookupStabilitySig:mean 	0.96126970169408
scalar Network.dyn_peer[317] 	lookupHopsSig:mean 	21.058823529412
scalar Network.dyn_peer[318] 	lookupTimeSig:mean 	2.3833333333333
scalar Network.dyn_peer[318] 	lookupStabilitySig:mean 	0.94951276915769
scalar Network.dyn_peer[318] 	lookupHopsSig:mean 	23
scalar Network.dyn_peer[319] 	lookupTimeSig:mean 	1.56875
scalar Network.dyn_peer[319] 	lookupStabilitySig:mean 	0.9745074591483
scalar Network.dyn_peer[319] 	lookupHopsSig:mean 	14.75
scalar Network.dyn_peer[320] 	lookupTimeSig:mean 	3.3642857142857
scalar Network.dyn_peer[320] 	lookupStabilitySig:mean 	0.96655922211773
scalar Network.dyn_peer[320] 	lookupHopsSig:mean 	32.714285714286
scalar Network.dyn_peer[321] 	lookupTimeSig:mean 	3.4615384615385
scalar Network.dyn_peer[321] 	lookupStabilitySig:mean 	0.95446435899402
scalar Network.dyn_peer[321] 	lookupHopsSig:mean 	33.692307692308
scalar Network.dyn_peer[322] 	lookupTimeSig:mean 	2.5272727272727
scalar Network.dyn_peer[322] 	lookupStabilitySig:mean 	0.97276153540323
scalar Network.dyn_peer[322] 	lookupHopsSig:mean 	24.318181818182
scalar Network.dyn_peer[323] 	lookupTimeSig:mean 	2.2769230769231
scalar Network.dyn_peer[323] 	lookupStabilitySig:mean 	0.9613818219648
scalar Network.dyn_peer[323] 	lookupHopsSig:mean 	21.846153846154
scalar Network.dyn_peer[324] 	lookupTimeSig:mean 	2.4941176470588
scalar Network.dyn_peer[324] 	lookupStabilitySig:mean 	0.96383576664854
scalar Network.dyn_peer[324] 	lookupHopsSig:mean 	24
scalar Network.dyn_peer[325] 	lookupTimeSig:mean 	2.39
scalar Network.dyn_peer[325] 	lookupStabilitySig:mean 	0.95907424679026
scalar Network.dyn_peer[325] 	lookupHopsSig:mean 	23
scalar Network.dyn_peer[326] 	lookupTimeSig:mean 	3.0222222222222
scalar Network.dyn_peer[326] 	lookupStabilitySig:mean 	0.94943886746963
scalar Network.dyn_peer[326] 	lookupHopsSig:mean 	29.333333333333
scalar Network.dyn_peer[327] 	lookupTimeSig:mean 	2.7
scalar Network.dyn_peer[327] 	lookupStabilitySig:mean 	0.9569256908905
scalar Network.dyn_peer[327] 	lookupHopsSig:mean 	26.076923076923
scalar Network.dyn_peer[328] 	lookupTimeSig:mean 	3.175
scalar Network.dyn_peer[328] 	lookupStabilitySig:mean 	0.96077465568669
scalar Network.dyn_peer[328] 	lookupHopsSig:mean 	30.833333333333
scalar Network.dyn_peer[329] 	lookupTimeSig:mean 	1.3111111111111
scalar Network.dyn_peer[329] 	lookupStabilitySig:mean 	0.97234922606084
scalar Network.dyn_peer[329] 	lookupHopsSig:mean 	12.222222222222
scalar Network.dyn_peer[330] 	lookupTimeSig:mean 	3.2833333333333
scalar Network.dyn_peer[330] 	lookupStabilitySig:mean 	0.95214050961658
scalar Network.dyn_peer[330] 	lookupHopsSig:mean 	31.916666666667
scalar Network.dyn_peer[331] 	lookupTimeSig:mean 	2.7
scalar Network.dyn_peer[331] 	lookupStabilitySig:mean 	0.93478932005486
scalar Network.dyn_peer[331] 	lookupHopsSig:mean 	26.142857142857
scalar Network.dyn_peer[332] 	lookupTimeSig:mean 	2.1764705882353
scalar Network.dyn_peer[332] 	lookupStabilitySig:mean 	0.97067063359325
scalar Network.dyn_peer[332] 	lookupHopsSig:mean 	20.823529411765
scalar Network.dyn_peer[333] 	lookupTimeSig:mean 	2.0888888888889
scalar Network.dyn_peer[333] 	lookupStabilitySig:mean 	0.97690948310062
scalar Network.dyn_peer[333] 	lookupHopsSig:mean 	19.944444444444
scalar Network.dyn_peer[334] 	lookupTimeSig:mean 	3.4333333333333
scalar Network.dyn_peer[334] 	lookupStabilitySig:mean 	0.94999212978615
scalar Network.dyn_peer[334] 	lookupHopsSig:mean 	33.444444444444
scalar Network.dyn_peer[335] 	lookupTimeSig:mean 	2.065
scalar Network.dyn_peer[335] 	lookupStabilitySig:mean 	0.97560432342289
scalar Network.dyn_peer[335] 	lookupHopsSig:mean 	19.7
scalar Network.dyn_peer[336] 	lookupTimeSig:mean 	2.56875
scalar Network.dyn_peer[336] 	lookupStabilitySig:mean 	0.96565964163165
scalar Network.dyn_peer[336] 	lookupHopsSig:mean 	24.75
scalar Network.dyn_peer[337] 	lookupTimeSig:mean 	2.3875
scalar Network.dyn_peer[337] 	lookupStabilitySig:mean 	0.95344266714528
scalar Network.dyn_peer[337] 	lookupHopsSig:mean 	23
scalar Network.dyn_peer[338] 	lookupTimeSig:mean 	2.32
scalar Network.dyn_peer[338] 	lookupStabilitySig:mean 	0.94479431491345
scalar Network.dyn_peer[338] 	lookupHopsSig:mean 	22.4
scalar Network.dyn_peer[339] 	lookupTimeSig:mean 	2.9851851851852
scalar Network.dyn_peer[339] 	lookupStabilitySig:mean 	0.97480330664311
scalar Network.dyn_peer[339] 	lookupHopsSig:mean 	28.888888888889
scalar Network.dyn_peer[340] 	lookupTimeSig:mean 	2.8461538461538
scalar Network.dyn_peer[340] 	lookupStabilitySig:mean 	0.95929416229662
scalar Network.dyn_peer[340] 	lookupHopsSig:mean 	27.538461538462
scalar Network.dyn_peer[341] 	lookupTimeSig:mean 	2.1
scalar Network.dyn_peer[341] 	lookupStabilitySig:mean 	0.96035137010871
scalar Network.dyn_peer[341] 	lookupHopsSig:mean 	20.071428571429
scalar Network.dyn_peer[342] 	lookupTimeSig:mean 	3.6666666666667
scalar Network.dyn_peer[342] 	lookupStabilitySig:mean 	0.93825388430721
scalar Network.dyn_peer[342] 	lookupHopsSig:mean 	35.777777777778
scalar Network.dyn_peer[343] 	lookupTimeSig:mean 	3.43125
scalar Network.dyn_peer[343] 	lookupStabilitySig:mean 	0.95980165535002
scalar Network.dyn_peer[343] 	lookupHopsSig:mean 	33.375
scalar Network.dyn_peer[344] 	lookupTimeSig:mean 	3.05625
scalar Network.dyn_peer[344] 	lookupStabilitySig:mean 	0.96537437828374
scalar Network.dyn_peer[344] 	lookupHopsSig:mean 	29.625
scalar Network.dyn_peer[345] 	lookupTimeSig:mean 	3.0230769230769
scalar Network.dyn_peer[345] 	lookupStabilitySig:mean 	0.95622018230363
scalar Network.dyn_peer[345] 	lookupHopsSig:mean 	29.307692307692
scalar Network.dyn_peer[346] 	lookupTimeSig:mean 	3.3933333333333
scalar Network.dyn_peer[346] 	lookupStabilitySig:mean 	0.96272677046557
scalar Network.dyn_peer[346] 	lookupHopsSig:mean 	33
scalar Network.dyn_peer[347] 	lookupTimeSig:mean 	2.34
scalar Network.dyn_peer[347] 	lookupStabilitySig:mean 	0.9723840644001
scalar Network.dyn_peer[347] 	lookupHopsSig:mean 	22.45
scalar Network.dyn_peer[348] 	lookupTimeSig:mean 	2.4933333333333
scalar Network.dyn_peer[348] 	lookupStabilitySig:mean 	0.96663189111277
scalar Network.dyn_peer[348] 	lookupHopsSig:mean 	24
scalar Network.dyn_peer[349] 	lookupTimeSig:mean 	3.8
scalar Network.dyn_peer[349] 	lookupStabilitySig:mean 	0.95437169261277
scalar Network.dyn_peer[349] 	lookupHopsSig:mean 	37.111111111111
scalar Network.dyn_peer[350] 	lookupTimeSig:mean 	2.84
scalar Network.dyn_peer[350] 	lookupStabilitySig:mean 	0.96380184975763
scalar Network.dyn_peer[350] 	lookupHopsSig:mean 	27.466666666667
scalar Network.dyn_peer[351] 	lookupTimeSig:mean 	2.45
scalar Network.dyn_peer[351] 	lookupStabilitySig:mean 	0.96920456805965
scalar Network.dyn_peer[351] 	lookupHopsSig:mean 	23.55
scalar Network.dyn_peer[352] 	lookupTimeSig:mean 	3.7375
scalar Network.dyn_peer[352] 	lookupStabilitySig:mean 	0.93823985848576
scalar Network.dyn_peer[352] 	lookupHopsSig:mean 	36.5
scalar Network.dyn_peer[353] 	lookupTimeSig:mean 	2.6615384615385
scalar Network.dyn_peer[353] 	lookupStabilitySig:mean 	0.96899553692828
scalar Network.dyn_peer[353] 	lookupHopsSig:mean 	25.692307692308
scalar Network.dyn_peer[354] 	lookupTimeSig:mean 	2.8083333333333
scalar Network.dyn_peer[354] 	lookupStabilitySig:mean 	0.9596851899211
scalar Network.dyn_peer[354] 	lookupHopsSig:mean 	27.166666666667
scalar Network.dyn_peer[355] 	lookupTimeSig:mean 	2.6
scalar Network.dyn_peer[355] 	lookupStabilitySig:mean 	0.96294402130521
scalar Network.dyn_peer[355] 	lookupHopsSig:mean 	25.076923076923
scalar Network.dyn_peer[356] 	lookupTimeSig:mean 	2.0391304347826
scalar Network.dyn_peer[356] 	lookupStabilitySig:mean 	0.97514601321334
scalar Network.dyn_peer[356] 	lookupHopsSig:mean 	19.434782608696
scalar Network.dyn_peer[357] 	lookupTimeSig:mean 	2.9142857142857
scalar Network.dyn_peer[357] 	lookupStabilitySig:mean 	0.96883918968074
scalar Network.dyn_peer[357] 	lookupHopsSig:mean 	28.190476190476
scalar Network.dyn_peer[358] 	lookupTimeSig:mean 	2.4
scalar Network.dyn_peer[358] 	lookupStabilitySig:mean 	0.97250059581197
scalar Network.dyn_peer[358] 	lookupHopsSig:mean 	23.058823529412
scalar Network.dyn_peer[359] 	lookupTimeSig:mean 	2.14
scalar Network.dyn_peer[359] 	lookupStabilitySig:mean 	0.92579566966742
scalar Network.dyn_peer[359] 	lookupHopsSig:mean 	20.6
scalar Network.dyn_peer[360] 	lookupTimeSig:mean 	1.8909090909091
scalar Network.dyn_peer[360] 	lookupStabilitySig:mean 	0.95520941430533
scalar Network.dyn_peer[360] 	lookupHopsSig:mean 	18
scalar Network.dyn_peer[361] 	lookupTimeSig:mean 	2.9
scalar Network.dyn_peer[361] 	lookupStabilitySig:mean 	0.94712895341218
scalar Network.dyn_peer[361] 	lookupHopsSig:mean 	28.125
scalar Network.dyn_peer[362] 	lookupTimeSig:mean 	2.4318181818182
scalar Network.dyn_peer[362] 	lookupStabilitySig:mean 	0.97232679921118
scalar Network.dyn_peer[362] 	lookupHopsSig:mean 	23.363636363636
scalar Network.dyn_peer[363] 	lookupTimeSig:mean 	2.34
scalar Network.dyn_peer[363] 	lookupStabilitySig:mean 	0.95638908678666
scalar Network.dyn_peer[363] 	lookupHopsSig:mean 	22.5
scalar Network.dyn_peer[364] 	lookupTimeSig:mean 	1.6
scalar Network.dyn_peer[364] 	lookupStabilitySig:mean 	0.97299476000868
scalar Network.dyn_peer[364] 	lookupHopsSig:mean 	15.055555555556
scalar Network.dyn_peer[365] 	lookupTimeSig:mean 	3.9421052631579
scalar Network.dyn_peer[365] 	lookupStabilitySig:mean 	0.96643283154423
scalar Network.dyn_peer[365] 	lookupHopsSig:mean 	38.473684210526
scalar Network.dyn_peer[366] 	lookupTimeSig:mean 	2.0428571428571
scalar Network.dyn_peer[366] 	lookupStabilitySig:mean 	0.97270863462195
scalar Network.dyn_peer[366] 	lookupHopsSig:mean 	19.47619047619
scalar Network.dyn_peer[367] 	lookupTimeSig:mean 	3.7
scalar Network.dyn_peer[367] 	lookupStabilitySig:mean 	0.96005755026514
scalar Network.dyn_peer[367] 	lookupHopsSig:mean 	36.166666666667
scalar Network.dyn_peer[368] 	lookupTimeSig:mean 	3.0692307692308
scalar Network.dyn_peer[368] 	lookupStabilitySig:mean 	0.96832626029992
scalar Network.dyn_peer[368] 	lookupHopsSig:mean 	29.769230769231
scalar Network.dyn_peer[369] 	lookupTimeSig:mean 	2.6555555555556
scalar Network.dyn_peer[369] 	lookupStabilitySig:mean 	0.95376581610698
scalar Network.dyn_peer[369] 	lookupHopsSig:mean 	25.666666666667
scalar Network.dyn_peer[370] 	lookupTimeSig:mean 	3.8
scalar Network.dyn_peer[370] 	lookupStabilitySig:mean 	0.96321662934497
scalar Network.dyn_peer[370] 	lookupHopsSig:mean 	37.1
scalar Network.dyn_peer[371] 	lookupTimeSig:mean 	2.6947368421053
scalar Network.dyn_peer[371] 	lookupStabilitySig:mean 	0.9750001525053
scalar Network.dyn_peer[371] 	lookupHopsSig:mean 	26
scalar Network.dyn_peer[372] 	lookupTimeSig:mean 	2.2777777777778
scalar Network.dyn_peer[372] 	lookupStabilitySig:mean 	0.95914914924651
scalar Network.dyn_peer[372] 	lookupHopsSig:mean 	21.888888888889
scalar Network.dyn_peer[373] 	lookupTimeSig:mean 	2.28
scalar Network.dyn_peer[373] 	lookupStabilitySig:mean 	0.94938025008887
scalar Network.dyn_peer[373] 	lookupHopsSig:mean 	22
scalar Network.dyn_peer[374] 	lookupTimeSig:mean 	3.08125
scalar Network.dyn_peer[374] 	lookupStabilitySig:mean 	0.97304395504761
scalar Network.dyn_peer[374] 	lookupHopsSig:mean 	29.875
scalar Network.dyn_peer[375] 	lookupTimeSig:mean 	2.6130434782609
scalar Network.dyn_peer[375] 	lookupStabilitySig:mean 	0.97266828673689
scalar Network.dyn_peer[375] 	lookupHopsSig:mean 	25.173913043478
scalar Network.dyn_peer[376] 	lookupTimeSig:mean 	2.4545454545455
scalar Network.dyn_peer[376] 	lookupStabilitySig:mean 	0.96266139544208
scalar Network.dyn_peer[376] 	lookupHopsSig:mean 	23.636363636364
scalar Network.dyn_peer[377] 	lookupTimeSig:mean 	2.0928571428571
scalar Network.dyn_peer[377] 	lookupStabilitySig:mean 	0.97415501998538
scalar Network.dyn_peer[377] 	lookupHopsSig:mean 	20
scalar Network.dyn_peer[378] 	lookupTimeSig:mean 	2.3272727272727
scalar Network.dyn_peer[378] 	lookupStabilitySig:mean 	0.97073603952727
scalar Network.dyn_peer[378] 	lookupHopsSig:mean 	22.363636363636
scalar Network.dyn_peer[379] 	lookupTimeSig:mean 	3.0916666666667
scalar Network.dyn_peer[379] 	lookupStabilitySig:mean 	0.95999040904765
scalar Network.dyn_peer[379] 	lookupHopsSig:mean 	30
scalar Network.dyn_peer[380] 	lookupTimeSig:mean 	2.1615384615385
scalar Network.dyn_peer[380] 	lookupStabilitySig:mean 	0.96607515681535
scalar Network.dyn_peer[380] 	lookupHopsSig:mean 	20.692307692308
scalar Network.dyn_peer[381] 	lookupTimeSig:mean 	3.5
scalar Network.dyn_peer[381] 	lookupStabilitySig:mean 	0.96722363370645
scalar Network.dyn_peer[381] 	lookupHopsSig:mean 	34.0625
scalar Network.dyn_peer[382] 	lookupTimeSig:mean 	2.66
scalar Network.dyn_peer[382] 	lookupStabilitySig:mean 	0.97169197805536
scalar Network.dyn_peer[382] 	lookupHopsSig:mean 	25.666666666667
scalar Network.dyn_peer[383] 	lookupTimeSig:mean 	2.3
scalar Network.dyn_peer[383] 	lookupStabilitySig:mean 	0.93884224404714
scalar Network.dyn_peer[383] 	lookupHopsSig:mean 	22.142857142857
scalar Network.dyn_peer[384] 	lookupTimeSig:mean 	3.62
scalar Network.dyn_peer[384] 	lookupStabilitySig:mean 	0.95039758570492
scalar Network.dyn_peer[384] 	lookupHopsSig:mean 	35.3
scalar Network.dyn_peer[385] 	lookupTimeSig:mean 	2.8533333333333
scalar Network.dyn_peer[385] 	lookupStabilitySig:mean 	0.96331490476926
scalar Network.dyn_peer[385] 	lookupHopsSig:mean 	27.6
scalar Network.dyn_peer[386] 	lookupTimeSig:mean 	3.3285714285714
scalar Network.dyn_peer[386] 	lookupStabilitySig:mean 	0.96020158460098
scalar Network.dyn_peer[386] 	lookupHopsSig:mean 	32.428571428571
scalar Network.dyn_peer[387] 	lookupTimeSig:mean 	2.6866666666667
scalar Network.dyn_peer[387] 	lookupStabilitySig:mean 	0.96685812093007
scalar Network.dyn_peer[387] 	lookupHopsSig:mean 	25.933333333333
scalar Network.dyn_peer[388] 	lookupTimeSig:mean 	1.4
scalar Network.dyn_peer[388] 	lookupStabilitySig:mean 	0.94936046576394
scalar Network.dyn_peer[388] 	lookupHopsSig:mean 	13.142857142857
scalar Network.dyn_peer[389] 	lookupTimeSig:mean 	2.0117647058824
scalar Network.dyn_peer[389] 	lookupStabilitySig:mean 	0.97268498332842
scalar Network.dyn_peer[389] 	lookupHopsSig:mean 	19.176470588235
scalar Network.dyn_peer[390] 	lookupTimeSig:mean 	2.5857142857143
scalar Network.dyn_peer[390] 	lookupStabilitySig:mean 	0.94866247242317
scalar Network.dyn_peer[390] 	lookupHopsSig:mean 	25
scalar Network.dyn_peer[391] 	lookupTimeSig:mean 	2.6578947368421
scalar Network.dyn_peer[391] 	lookupStabilitySig:mean 	0.96923039034989
scalar Network.dyn_peer[391] 	lookupHopsSig:mean 	25.631578947368
scalar Network.dyn_peer[392] 	lookupTimeSig:mean 	3.0421052631579
scalar Network.dyn_peer[392] 	lookupStabilitySig:mean 	0.97450366255974
scalar Network.dyn_peer[392] 	lookupHopsSig:mean 	29.473684210526
scalar Network.dyn_peer[393] 	lookupTimeSig:mean 	3.3619047619048
scalar Network.dyn_peer[393] 	lookupStabilitySig:mean 	0.97252935406175
scalar Network.dyn_peer[393] 	lookupHopsSig:mean 	32.666666666667
scalar Network.dyn_peer[394] 	lookupTimeSig:mean 	3.2692307692308
scalar Network.dyn_peer[394] 	lookupStabilitySig:mean 	0.96645207033278
scalar Network.dyn_peer[394] 	lookupHopsSig:mean 	31.769230769231
scalar Network.dyn_peer[395] 	lookupTimeSig:mean 	2.8375
scalar Network.dyn_peer[395] 	lookupStabilitySig:mean 	0.95872302609496
scalar Network.dyn_peer[395] 	lookupHopsSig:mean 	27.5
scalar Network.dyn_peer[396] 	lookupTimeSig:mean 	3.2944444444444
scalar Network.dyn_peer[396] 	lookupStabilitySig:mean 	0.97202754995993
scalar Network.dyn_peer[396] 	lookupHopsSig:mean 	32
scalar Network.dyn_peer[397] 	lookupTimeSig:mean 	2.4272727272727
scalar Network.dyn_peer[397] 	lookupStabilitySig:mean 	0.95755522224036
scalar Network.dyn_peer[397] 	lookupHopsSig:mean 	23.363636363636
scalar Network.dyn_peer[398] 	lookupTimeSig:mean 	3.1764705882353
scalar Network.dyn_peer[398] 	lookupStabilitySig:mean 	0.97125155947116
scalar Network.dyn_peer[398] 	lookupHopsSig:mean 	30.823529411765
scalar Network.dyn_peer[399] 	lookupTimeSig:mean 	2.6625
scalar Network.dyn_peer[399] 	lookupStabilitySig:mean 	0.94818174000829
scalar Network.dyn_peer[399] 	lookupHopsSig:mean 	25.75
scalar Network.dyn_peer[400] 	lookupTimeSig:mean 	2.405
scalar Network.dyn_peer[400] 	lookupStabilitySig:mean 	0.9749813590548
scalar Network.dyn_peer[400] 	lookupHopsSig:mean 	23.1
scalar Network.dyn_peer[401] 	lookupTimeSig:mean 	1.4
scalar Network.dyn_peer[401] 	lookupStabilitySig:mean 	0.91484467126429
scalar Network.dyn_peer[401] 	lookupHopsSig:mean 	13.5
scalar Network.dyn_peer[402] 	lookupTimeSig:mean 	2.2785714285714
scalar Network.dyn_peer[402] 	lookupStabilitySig:mean 	0.96338441881484
scalar Network.dyn_peer[402] 	lookupHopsSig:mean 	21.857142857143
scalar Network.dyn_peer[403] 	lookupTimeSig:mean 	2.385
scalar Network.dyn_peer[403] 	lookupStabilitySig:mean 	0.97142863187473
scalar Network.dyn_peer[403] 	lookupHopsSig:mean 	22.9
scalar Network.dyn_peer[404] 	lookupTimeSig:mean 	1.9
scalar Network.dyn_peer[404] 	lookupStabilitySig:mean 	0.9509988228092
scalar Network.dyn_peer[404] 	lookupHopsSig:mean 	18.125
scalar Network.dyn_peer[405] 	lookupTimeSig:mean 	2.7
scalar Network.dyn_peer[405] 	lookupStabilitySig:mean 	0.9600971492473
scalar Network.dyn_peer[405] 	lookupHopsSig:mean 	26.1
scalar Network.dyn_peer[406] 	lookupTimeSig:mean 	1.89
scalar Network.dyn_peer[406] 	lookupStabilitySig:mean 	0.96403241418302
scalar Network.dyn_peer[406] 	lookupHopsSig:mean 	18
scalar Network.dyn_peer[407] 	lookupTimeSig:mean 	3.52
scalar Network.dyn_peer[407] 	lookupStabilitySig:mean 	0.97515612058342
scalar Network.dyn_peer[407] 	lookupHopsSig:mean 	34.25
[...]
scalar Network.dyn_peer[9885] 	lookupTimeSig:mean 	-nan
scalar Network.dyn_peer[9885] 	lookupStabilitySig:mean 	-nan
scalar Network.dyn_peer[9885] 	lookupHopsSig:mean 	-nan
scalar Network.dyn_peer[9886] 	lookupTimeSig:mean 	-nan
scalar Network.dyn_peer[9886] 	lookupStabilitySig:mean 	-nan
scalar Network.dyn_peer[9886] 	lookupHopsSig:mean 	-nan
scalar Network.dyn_peer[9887] 	lookupTimeSig:mean 	-nan
scalar Network.dyn_peer[9887] 	lookupStabilitySig:mean 	-nan
scalar Network.dyn_peer[9887] 	lookupHopsSig:mean 	-nan
scalar Network.dyn_peer[9888] 	lookupTimeSig:mean 	-nan
scalar Network.dyn_peer[9888] 	lookupStabilitySig:mean 	-nan
scalar Network.dyn_peer[9888] 	lookupHopsSig:mean 	-nan
scalar Network.dyn_peer[9889] 	lookupTimeSig:mean 	-nan
scalar Network.dyn_peer[9889] 	lookupStabilitySig:mean 	-nan
scalar Network.dyn_peer[9889] 	lookupHopsSig:mean 	-nan
scalar Network.dyn_peer[9890] 	lookupTimeSig:mean 	-nan
scalar Network.dyn_peer[9890] 	lookupStabilitySig:mean 	-nan
scalar Network.dyn_peer[9890] 	lookupHopsSig:mean 	-nan
scalar Network.dyn_peer[9891] 	lookupTimeSig:mean 	-nan
scalar Network.dyn_peer[9891] 	lookupStabilitySig:mean 	-nan
scalar Network.dyn_peer[9891] 	lookupHopsSig:mean 	-nan
scalar Network.dyn_peer[9892] 	lookupTimeSig:mean 	-nan
scalar Network.dyn_peer[9892] 	lookupStabilitySig:mean 	-nan
scalar Network.dyn_peer[9892] 	lookupHopsSig:mean 	-nan
scalar Network.dyn_peer[9893] 	lookupTimeSig:mean 	-nan
scalar Network.dyn_peer[9893] 	lookupStabilitySig:mean 	-nan
scalar Network.dyn_peer[9893] 	lookupHopsSig:mean 	-nan
scalar Network.dyn_peer[9894] 	lookupTimeSig:mean 	-nan
scalar Network.dyn_peer[9894] 	lookupStabilitySig:mean 	-nan
scalar Network.dyn_peer[9894] 	lookupHopsSig:mean 	-nan
scalar Network.dyn_peer[9895] 	lookupTimeSig:mean 	-nan
scalar Network.dyn_peer[9895] 	lookupStabilitySig:mean 	-nan
scalar Network.dyn_peer[9895] 	lookupHopsSig:mean 	-nan
scalar Network.dyn_peer[9896] 	lookupTimeSig:mean 	-nan
scalar Network.dyn_peer[9896] 	lookupStabilitySig:mean 	-nan
scalar Network.dyn_peer[9896] 	lookupHopsSig:mean 	-nan
scalar Network.dyn_peer[9897] 	lookupTimeSig:mean 	-nan
scalar Network.dyn_peer[9897] 	lookupStabilitySig:mean 	-nan
scalar Network.dyn_peer[9897] 	lookupHopsSig:mean 	-nan
scalar Network.dyn_peer[9898] 	lookupTimeSig:mean 	-nan
scalar Network.dyn_peer[9898] 	lookupStabilitySig:mean 	-nan
scalar Network.dyn_peer[9898] 	lookupHopsSig:mean 	-nan
scalar Network.dyn_peer[9899] 	lookupTimeSig:mean 	-nan
scalar Network.dyn_peer[9899] 	lookupStabilitySig:mean 	-nan
scalar Network.dyn_peer[9899] 	lookupHopsSig:mean 	-nan
scalar Network.dyn_peer[9900] 	lookupTimeSig:mean 	-nan
scalar Network.dyn_peer[9900] 	lookupStabilitySig:mean 	-nan
scalar Network.dyn_peer[9900] 	lookupHopsSig:mean 	-nan
scalar Network.dyn_peer[9901] 	lookupTimeSig:mean 	-nan
scalar Network.dyn_peer[9901] 	lookupStabilitySig:mean 	-nan
scalar Network.dyn_peer[9901] 	lookupHopsSig:mean 	-nan
scalar Network.dyn_peer[9902] 	lookupTimeSig:mean 	-nan
scalar Network.dyn_peer[9902] 	lookupStabilitySig:mean 	-nan
scalar Network.dyn_peer[9902] 	lookupHopsSig:mean 	-nan
scalar Network.dyn_peer[9903] 	lookupTimeSig:mean 	-nan
scalar Network.dyn_peer[9903] 	lookupStabilitySig:mean 	-nan
scalar Network.dyn_peer[9903] 	lookupHopsSig:mean 	-nan
scalar Network.dyn_peer[9904] 	lookupTimeSig:mean 	-nan
scalar Network.dyn_peer[9904] 	lookupStabilitySig:mean 	-nan
scalar Network.dyn_peer[9904] 	lookupHopsSig:mean 	-nan
scalar Network.dyn_peer[9905] 	lookupTimeSig:mean 	-nan
scalar Network.dyn_peer[9905] 	lookupStabilitySig:mean 	-nan
scalar Network.dyn_peer[9905] 	lookupHopsSig:mean 	-nan
scalar Network.dyn_peer[9906] 	lookupTimeSig:mean 	-nan
scalar Network.dyn_peer[9906] 	lookupStabilitySig:mean 	-nan
scalar Network.dyn_peer[9906] 	lookupHopsSig:mean 	-nan
scalar Network.dyn_peer[9907] 	lookupTimeSig:mean 	-nan
scalar Network.dyn_peer[9907] 	lookupStabilitySig:mean 	-nan
scalar Network.dyn_peer[9907] 	lookupHopsSig:mean 	-nan
scalar Network.dyn_peer[9908] 	lookupTimeSig:mean 	-nan
scalar Network.dyn_peer[9908] 	lookupStabilitySig:mean 	-nan
scalar Network.dyn_peer[9908] 	lookupHopsSig:mean 	-nan
scalar Network.dyn_peer[9909] 	lookupTimeSig:mean 	-nan
scalar Network.dyn_peer[9909] 	lookupStabilitySig:mean 	-nan
scalar Network.dyn_peer[9909] 	lookupHopsSig:mean 	-nan
scalar Network.dyn_peer[9910] 	lookupTimeSig:mean 	-nan
scalar Network.dyn_peer[9910] 	lookupStabilitySig:mean 	-nan
scalar Network.dyn_peer[9910] 	lookupHopsSig:mean 	-nan
scalar Network.dyn_peer[9911] 	lookupTimeSig:mean 	-nan
scalar Network.dyn_peer[9911] 	lookupStabilitySig:mean 	-nan
scalar Network.dyn_peer[9911] 	lookupHopsSig:mean 	-nan
scalar Network.dyn_peer[9912] 	lookupTimeSig:mean 	-nan
scalar Network.dyn_peer[9912] 	lookupStabilitySig:mean 	-nan
scalar Network.dyn_peer[9912] 	lookupHopsSig:mean 	-nan
scalar Network.dyn_peer[9913] 	lookupTimeSig:mean 	-nan
scalar Network.dyn_peer[9913] 	lookupStabilitySig:mean 	-nan
scalar Network.dyn_peer[9913] 	lookupHopsSig:mean 	-nan
scalar Network.dyn_peer[9914] 	lookupTimeSig:mean 	-nan
scalar Network.dyn_peer[9914] 	lookupStabilitySig:mean 	-nan
scalar Network.dyn_peer[9914] 	lookupHopsSig:mean 	-nan
scalar Network.dyn_peer[9915] 	lookupTimeSig:mean 	-nan
scalar Network.dyn_peer[9915] 	lookupStabilitySig:mean 	-nan
scalar Network.dyn_peer[9915] 	lookupHopsSig:mean 	-nan
scalar Network.dyn_peer[9916] 	lookupTimeSig:mean 	-nan
scalar Network.dyn_peer[9916] 	lookupStabilitySig:mean 	-nan
scalar Network.dyn_peer[9916] 	lookupHopsSig:mean 	-nan
scalar Network.dyn_peer[9917] 	lookupTimeSig:mean 	-nan
scalar Network.dyn_peer[9917] 	lookupStabilitySig:mean 	-nan
scalar Network.dyn_peer[9917] 	lookupHopsSig:mean 	-nan
scalar Network.dyn_peer[9918] 	lookupTimeSig:mean 	-nan
scalar Network.dyn_peer[9918] 	lookupStabilitySig:mean 	-nan
scalar Network.dyn_peer[9918] 	lookupHopsSig:mean 	-nan
scalar Network.dyn_peer[9919] 	lookupTimeSig:mean 	-nan
scalar Network.dyn_peer[9919] 	lookupStabilitySig:mean 	-nan
scalar Network.dyn_peer[9919] 	lookupHopsSig:mean 	-nan
scalar Network.dyn_peer[9920] 	lookupTimeSig:mean 	-nan
scalar Network.dyn_peer[9920] 	lookupStabilitySig:mean 	-nan
scalar Network.dyn_peer[9920] 	lookupHopsSig:mean 	-nan
scalar Network.dyn_peer[9921] 	lookupTimeSig:mean 	-nan
scalar Network.dyn_peer[9921] 	lookupStabilitySig:mean 	-nan
scalar Network.dyn_peer[9921] 	lookupHopsSig:mean 	-nan
scalar Network.dyn_peer[9922] 	lookupTimeSig:mean 	-nan
scalar Network.dyn_peer[9922] 	lookupStabilitySig:mean 	-nan
scalar Network.dyn_peer[9922] 	lookupHopsSig:mean 	-nan
scalar Network.dyn_peer[9923] 	lookupTimeSig:mean 	-nan
scalar Network.dyn_peer[9923] 	lookupStabilitySig:mean 	-nan
scalar Network.dyn_peer[9923] 	lookupHopsSig:mean 	-nan
scalar Network.dyn_peer[9924] 	lookupTimeSig:mean 	-nan
scalar Network.dyn_peer[9924] 	lookupStabilitySig:mean 	-nan
scalar Network.dyn_peer[9924] 	lookupHopsSig:mean 	-nan
scalar Network.dyn_peer[9925] 	lookupTimeSig:mean 	-nan
scalar Network.dyn_peer[9925] 	lookupStabilitySig:mean 	-nan
scalar Network.dyn_peer[9925] 	lookupHopsSig:mean 	-nan
scalar Network.dyn_peer[9926] 	lookupTimeSig:mean 	-nan
scalar Network.dyn_peer[9926] 	lookupStabilitySig:mean 	-nan
scalar Network.dyn_peer[9926] 	lookupHopsSig:mean 	-nan
scalar Network.dyn_peer[9927] 	lookupTimeSig:mean 	-nan
scalar Network.dyn_peer[9927] 	lookupStabilitySig:mean 	-nan
scalar Network.dyn_peer[9927] 	lookupHopsSig:mean 	-nan
scalar Network.dyn_peer[9928] 	lookupTimeSig:mean 	-nan
scalar Network.dyn_peer[9928] 	lookupStabilitySig:mean 	-nan
scalar Network.dyn_peer[9928] 	lookupHopsSig:mean 	-nan
scalar Network.dyn_peer[9929] 	lookupTimeSig:mean 	-nan
scalar Network.dyn_peer[9929] 	lookupStabilitySig:mean 	-nan
scalar Network.dyn_peer[9929] 	lookupHopsSig:mean 	-nan
scalar Network.dyn_peer[9930] 	lookupTimeSig:mean 	-nan
scalar Network.dyn_peer[9930] 	lookupStabilitySig:mean 	-nan
scalar Network.dyn_peer[9930] 	lookupHopsSig:mean 	-nan
scalar Network.dyn_peer[9931] 	lookupTimeSig:mean 	-nan
scalar Network.dyn_peer[9931] 	lookupStabilitySig:mean 	-nan
scalar Network.dyn_peer[9931] 	lookupHopsSig:mean 	-nan
scalar Network.dyn_peer[9932] 	lookupTimeSig:mean 	-nan
scalar Network.dyn_peer[9932] 	lookupStabilitySig:mean 	-nan
scalar Network.dyn_peer[9932] 	lookupHopsSig:mean 	-nan
scalar Network.dyn_peer[9933] 	lookupTimeSig:mean 	-nan
scalar Network.dyn_peer[9933] 	lookupStabilitySig:mean 	-nan
scalar Network.dyn_peer[9933] 	lookupHopsSig:mean 	-nan
scalar Network.dyn_peer[9934] 	lookupTimeSig:mean 	-nan
scalar Network.dyn_peer[9934] 	lookupStabilitySig:mean 	-nan
scalar Network.dyn_peer[9934] 	lookupHopsSig:mean 	-nan
scalar Network.dyn_peer[9935] 	lookupTimeSig:mean 	-nan
scalar Network.dyn_peer[9935] 	lookupStabilitySig:mean 	-nan
scalar Network.dyn_peer[9935] 	lookupHopsSig:mean 	-nan
scalar Network.dyn_peer[9936] 	lookupTimeSig:mean 	-nan
scalar Network.dyn_peer[9936] 	lookupStabilitySig:mean 	-nan
scalar Network.dyn_peer[9936] 	lookupHopsSig:mean 	-nan
scalar Network.dyn_peer[9937] 	lookupTimeSig:mean 	-nan
scalar Network.dyn_peer[9937] 	lookupStabilitySig:mean 	-nan
scalar Network.dyn_peer[9937] 	lookupHopsSig:mean 	-nan
scalar Network.dyn_peer[9938] 	lookupTimeSig:mean 	-nan
scalar Network.dyn_peer[9938] 	lookupStabilitySig:mean 	-nan
scalar Network.dyn_peer[9938] 	lookupHopsSig:mean 	-nan
scalar Network.dyn_peer[9939] 	lookupTimeSig:mean 	-nan
scalar Network.dyn_peer[9939] 	lookupStabilitySig:mean 	-nan
scalar Network.dyn_peer[9939] 	lookupHopsSig:mean 	-nan
scalar Network.dyn_peer[9940] 	lookupTimeSig:mean 	-nan
scalar Network.dyn_peer[9940] 	lookupStabilitySig:mean 	-nan
scalar Network.dyn_peer[9940] 	lookupHopsSig:mean 	-nan
scalar Network.dyn_peer[9941] 	lookupTimeSig:mean 	-nan
scalar Network.dyn_peer[9941] 	lookupStabilitySig:mean 	-nan
scalar Network.dyn_peer[9941] 	lookupHopsSig:mean 	-nan
scalar Network.dyn_peer[9942] 	lookupTimeSig:mean 	-nan
scalar Network.dyn_peer[9942] 	lookupStabilitySig:mean 	-nan
scalar Network.dyn_peer[9942] 	lookupHopsSig:mean 	-nan
scalar Network.dyn_peer[9943] 	lookupTimeSig:mean 	-nan
scalar Network.dyn_peer[9943] 	lookupStabilitySig:mean 	-nan
scalar Network.dyn_peer[9943] 	lookupHopsSig:mean 	-nan
scalar Network.dyn_peer[9944] 	lookupTimeSig:mean 	-nan
scalar Network.dyn_peer[9944] 	lookupStabilitySig:mean 	-nan
scalar Network.dyn_peer[9944] 	lookupHopsSig:mean 	-nan
scalar Network.dyn_peer[9945] 	lookupTimeSig:mean 	-nan
scalar Network.dyn_peer[9945] 	lookupStabilitySig:mean 	-nan
scalar Network.dyn_peer[9945] 	lookupHopsSig:mean 	-nan
scalar Network.dyn_peer[9946] 	lookupTimeSig:mean 	-nan
scalar Network.dyn_peer[9946] 	lookupStabilitySig:mean 	-nan
scalar Network.dyn_peer[9946] 	lookupHopsSig:mean 	-nan
scalar Network.dyn_peer[9947] 	lookupTimeSig:mean 	-nan
scalar Network.dyn_peer[9947] 	lookupStabilitySig:mean 	-nan
scalar Network.dyn_peer[9947] 	lookupHopsSig:mean 	-nan
scalar Network.dyn_peer[9948] 	lookupTimeSig:mean 	-nan
scalar Network.dyn_peer[9948] 	lookupStabilitySig:mean 	-nan
scalar Network.dyn_peer[9948] 	lookupHopsSig:mean 	-nan
scalar Network.dyn_peer[9949] 	lookupTimeSig:mean 	-nan
scalar Network.dyn_peer[9949] 	lookupStabilitySig:mean 	-nan
scalar Network.dyn_peer[9949] 	lookupHopsSig:mean 	-nan
scalar Network.dyn_peer[9950] 	lookupTimeSig:mean 	-nan
scalar Network.dyn_peer[9950] 	lookupStabilitySig:mean 	-nan
scalar Network.dyn_peer[9950] 	lookupHopsSig:mean 	-nan
scalar Network.dyn_peer[9951] 	lookupTimeSig:mean 	-nan
scalar Network.dyn_peer[9951] 	lookupStabilitySig:mean 	-nan
scalar Network.dyn_peer[9951] 	lookupHopsSig:mean 	-nan
scalar Network.dyn_peer[9952] 	lookupTimeSig:mean 	-nan
scalar Network.dyn_peer[9952] 	lookupStabilitySig:mean 	-nan
scalar Network.dyn_peer[9952] 	lookupHopsSig:mean 	-nan
scalar Network.dyn_peer[9953] 	lookupTimeSig:mean 	-nan
scalar Network.dyn_peer[9953] 	lookupStabilitySig:mean 	-nan
scalar Network.dyn_peer[9953] 	lookupHopsSig:mean 	-nan
scalar Network.dyn_peer[9954] 	lookupTimeSig:mean 	-nan
scalar Network.dyn_peer[9954] 	lookupStabilitySig:mean 	-nan
scalar Network.dyn_peer[9954] 	lookupHopsSig:mean 	-nan
scalar Network.dyn_peer[9955] 	lookupTimeSig:mean 	-nan
scalar Network.dyn_peer[9955] 	lookupStabilitySig:mean 	-nan
scalar Network.dyn_peer[9955] 	lookupHopsSig:mean 	-nan
scalar Network.dyn_peer[9956] 	lookupTimeSig:mean 	-nan
scalar Network.dyn_peer[9956] 	lookupStabilitySig:mean 	-nan
scalar Network.dyn_peer[9956] 	lookupHopsSig:mean 	-nan
scalar Network.dyn_peer[9957] 	lookupTimeSig:mean 	-nan
scalar Network.dyn_peer[9957] 	lookupStabilitySig:mean 	-nan
scalar Network.dyn_peer[9957] 	lookupHopsSig:mean 	-nan
scalar Network.dyn_peer[9958] 	lookupTimeSig:mean 	-nan
scalar Network.dyn_peer[9958] 	lookupStabilitySig:mean 	-nan
scalar Network.dyn_peer[9958] 	lookupHopsSig:mean 	-nan
scalar Network.dyn_peer[9959] 	lookupTimeSig:mean 	-nan
scalar Network.dyn_peer[9959] 	lookupStabilitySig:mean 	-nan
scalar Network.dyn_peer[9959] 	lookupHopsSig:mean 	-nan
scalar Network.dyn_peer[9960] 	lookupTimeSig:mean 	-nan
scalar Network.dyn_peer[9960] 	lookupStabilitySig:mean 	-nan
scalar Network.dyn_peer[9960] 	lookupHopsSig:mean 	-nan
scalar Network.dyn_peer[9961] 	lookupTimeSig:mean 	-nan
scalar Network.dyn_peer[9961] 	lookupStabilitySig:mean 	-nan
scalar Network.dyn_peer[9961] 	lookupHopsSig:mean 	-nan
scalar Network.dyn_peer[9962] 	lookupTimeSig:mean 	-nan
scalar Network.dyn_peer[9962] 	lookupStabilitySig:mean 	-nan
scalar Network.dyn_peer[9962] 	lookupHopsSig:mean 	-nan
scalar Network.dyn_peer[9963] 	lookupTimeSig:mean 	-nan
scalar Network.dyn_peer[9963] 	lookupStabilitySig:mean 	-nan
scalar Network.dyn_peer[9963] 	lookupHopsSig:mean 	-nan
scalar Network.dyn_peer[9964] 	lookupTimeSig:mean 	-nan
scalar Network.dyn_peer[9964] 	lookupStabilitySig:mean 	-nan
scalar Network.dyn_peer[9964] 	lookupHopsSig:mean 	-nan
scalar Network.dyn_peer[9965] 	lookupTimeSig:mean 	-nan
scalar Network.dyn_peer[9965] 	lookupStabilitySig:mean 	-nan
scalar Network.dyn_peer[9965] 	lookupHopsSig:mean 	-nan
scalar Network.dyn_peer[9966] 	lookupTimeSig:mean 	-nan
scalar Network.dyn_peer[9966] 	lookupStabilitySig:mean 	-nan
scalar Network.dyn_peer[9966] 	lookupHopsSig:mean 	-nan
scalar Network.dyn_peer[9967] 	lookupTimeSig:mean 	-nan
scalar Network.dyn_peer[9967] 	lookupStabilitySig:mean 	-nan
scalar Network.dyn_peer[9967] 	lookupHopsSig:mean 	-nan
scalar Network.dyn_peer[9968] 	lookupTimeSig:mean 	-nan
scalar Network.dyn_peer[9968] 	lookupStabilitySig:mean 	-nan
scalar Network.dyn_peer[9968] 	lookupHopsSig:mean 	-nan
scalar Network.dyn_peer[9969] 	lookupTimeSig:mean 	-nan
scalar Network.dyn_peer[9969] 	lookupStabilitySig:mean 	-nan
scalar Network.dyn_peer[9969] 	lookupHopsSig:mean 	-nan
scalar Network.dyn_peer[9970] 	lookupTimeSig:mean 	-nan
scalar Network.dyn_peer[9970] 	lookupStabilitySig:mean 	-nan
scalar Network.dyn_peer[9970] 	lookupHopsSig:mean 	-nan
scalar Network.dyn_peer[9971] 	lookupTimeSig:mean 	-nan
scalar Network.dyn_peer[9971] 	lookupStabilitySig:mean 	-nan
scalar Network.dyn_peer[9971] 	lookupHopsSig:mean 	-nan
scalar Network.dyn_peer[9972] 	lookupTimeSig:mean 	-nan
scalar Network.dyn_peer[9972] 	lookupStabilitySig:mean 	-nan
scalar Network.dyn_peer[9972] 	lookupHopsSig:mean 	-nan
scalar Network.dyn_peer[9973] 	lookupTimeSig:mean 	-nan
scalar Network.dyn_peer[9973] 	lookupStabilitySig:mean 	-nan
scalar Network.dyn_peer[9973] 	lookupHopsSig:mean 	-nan
scalar Network.dyn_peer[9974] 	lookupTimeSig:mean 	-nan
scalar Network.dyn_peer[9974] 	lookupStabilitySig:mean 	-nan
scalar Network.dyn_peer[9974] 	lookupHopsSig:mean 	-nan
scalar Network.dyn_peer[9975] 	lookupTimeSig:mean 	-nan
scalar Network.dyn_peer[9975] 	lookupStabilitySig:mean 	-nan
scalar Network.dyn_peer[9975] 	lookupHopsSig:mean 	-nan
scalar Network.dyn_peer[9976] 	lookupTimeSig:mean 	-nan
scalar Network.dyn_peer[9976] 	lookupStabilitySig:mean 	-nan
scalar Network.dyn_peer[9976] 	lookupHopsSig:mean 	-nan
scalar Network.dyn_peer[9977] 	lookupTimeSig:mean 	-nan
scalar Network.dyn_peer[9977] 	lookupStabilitySig:mean 	-nan
scalar Network.dyn_peer[9977] 	lookupHopsSig:mean 	-nan
scalar Network.dyn_peer[9978] 	lookupTimeSig:mean 	-nan
scalar Network.dyn_peer[9978] 	lookupStabilitySig:mean 	-nan
scalar Network.dyn_peer[9978] 	lookupHopsSig:mean 	-nan
scalar Network.dyn_peer[9979] 	lookupTimeSig:mean 	-nan
scalar Network.dyn_peer[9979] 	lookupStabilitySig:mean 	-nan
scalar Network.dyn_peer[9979] 	lookupHopsSig:mean 	-nan
scalar Network.dyn_peer[9980] 	lookupTimeSig:mean 	-nan
scalar Network.dyn_peer[9980] 	lookupStabilitySig:mean 	-nan
scalar Network.dyn_peer[9980] 	lookupHopsSig:mean 	-nan
scalar Network.dyn_peer[9981] 	lookupTimeSig:mean 	-nan
scalar Network.dyn_peer[9981] 	lookupStabilitySig:mean 	-nan
scalar Network.dyn_peer[9981] 	lookupHopsSig:mean 	-nan
scalar Network.dyn_peer[9982] 	lookupTimeSig:mean 	-nan
scalar Network.dyn_peer[9982] 	lookupStabilitySig:mean 	-nan
scalar Network.dyn_peer[9982] 	lookupHopsSig:mean 	-nan
scalar Network.dyn_peer[9983] 	lookupTimeSig:mean 	-nan
scalar Network.dyn_peer[9983] 	lookupStabilitySig:mean 	-nan
scalar Network.dyn_peer[9983] 	lookupHopsSig:mean 	-nan
scalar Network.dyn_peer[9984] 	lookupTimeSig:mean 	-nan
scalar Network.dyn_peer[9984] 	lookupStabilitySig:mean 	-nan
scalar Network.dyn_peer[9984] 	lookupHopsSig:mean 	-nan
scalar Network.dyn_peer[9985] 	lookupTimeSig:mean 	-nan
scalar Network.dyn_peer[9985] 	lookupStabilitySig:mean 	-nan
scalar Network.dyn_peer[9985] 	lookupHopsSig:mean 	-nan
scalar Network.dyn_peer[9986] 	lookupTimeSig:mean 	-nan
scalar Network.dyn_peer[9986] 	lookupStabilitySig:mean 	-nan
scalar Network.dyn_peer[9986] 	lookupHopsSig:mean 	-nan
scalar Network.dyn_peer[9987] 	lookupTimeSig:mean 	-nan
scalar Network.dyn_peer[9987] 	lookupStabilitySig:mean 	-nan
scalar Network.dyn_peer[9987] 	lookupHopsSig:mean 	-nan
scalar Network.dyn_peer[9988] 	lookupTimeSig:mean 	-nan
scalar Network.dyn_peer[9988] 	lookupStabilitySig:mean 	-nan
scalar Network.dyn_peer[9988] 	lookupHopsSig:mean 	-nan
scalar Network.dyn_peer[9989] 	lookupTimeSig:mean 	-nan
scalar Network.dyn_peer[9989] 	lookupStabilitySig:mean 	-nan
scalar Network.dyn_peer[9989] 	lookupHopsSig:mean 	-nan
scalar Network.dyn_peer[9990] 	lookupTimeSig:mean 	-nan
scalar Network.dyn_peer[9990] 	lookupStabilitySig:mean 	-nan
scalar Network.dyn_peer[9990] 	lookupHopsSig:mean 	-nan
scalar Network.dyn_peer[9991] 	lookupTimeSig:mean 	-nan
scalar Network.dyn_peer[9991] 	lookupStabilitySig:mean 	-nan
scalar Network.dyn_peer[9991] 	lookupHopsSig:mean 	-nan
scalar Network.dyn_peer[9992] 	lookupTimeSig:mean 	-nan
scalar Network.dyn_peer[9992] 	lookupStabilitySig:mean 	-nan
scalar Network.dyn_peer[9992] 	lookupHopsSig:mean 	-nan
scalar Network.dyn_peer[9993] 	lookupTimeSig:mean 	-nan
scalar Network.dyn_peer[9993] 	lookupStabilitySig:mean 	-nan
scalar Network.dyn_peer[9993] 	lookupHopsSig:mean 	-nan
scalar Network.dyn_peer[9994] 	lookupTimeSig:mean 	-nan
scalar Network.dyn_peer[9994] 	lookupStabilitySig:mean 	-nan
scalar Network.dyn_peer[9994] 	lookupHopsSig:mean 	-nan
scalar Network.dyn_peer[9995] 	lookupTimeSig:mean 	-nan
scalar Network.dyn_peer[9995] 	lookupStabilitySig:mean 	-nan
scalar Network.dyn_peer[9995] 	lookupHopsSig:mean 	-nan
scalar Network.dyn_peer[9996] 	lookupTimeSig:mean 	-nan
scalar Network.dyn_peer[9996] 	lookupStabilitySig:mean 	-nan
scalar Network.dyn_peer[9996] 	lookupHopsSig:mean 	-nan
scalar Network.dyn_peer[9997] 	lookupTimeSig:mean 	-nan
scalar Network.dyn_peer[9997] 	lookupStabilitySig:mean 	-nan
scalar Network.dyn_peer[9997] 	lookupHopsSig:mean 	-nan
scalar Network.dyn_peer[9998] 	lookupTimeSig:mean 	-nan
scalar Network.dyn_peer[9998] 	lookupStabilitySig:mean 	-nan
scalar Network.dyn_peer[9998] 	lookupHopsSig:mean 	-nan
scalar Network.dyn_peer[9999] 	lookupTimeSig:mean 	-nan
scalar Network.dyn_peer[9999] 	lookupStabilitySig:mean 	-nan
scalar Network.dyn_peer[9999] 	lookupHopsSig:mean 	-nan
scalar Network.churner 	inGoingSizeSig:mean 	1292.0931813637
