version 2
run Stability2-83-20130528-01:41:13-24168
attr configname Stability2
attr datetime 20130528-01:41:13
attr experiment Stability2
attr inifile omnetpp.ini
attr iterationvars $0=400
attr iterationvars2 "$0=400, $repetition=3"
attr measurement $0=400
attr network Network
attr processid 24168
attr repetition 3
attr replication #3
attr resultdir results
attr runnumber 83
attr seedset 83

scalar Network.dyn_peer[0] 	lookupTimeSig:mean 	2.44375
scalar Network.dyn_peer[0] 	lookupStabilitySig:mean 	0.86237076413818
scalar Network.dyn_peer[0] 	lookupHopsSig:mean 	23.5
scalar Network.dyn_peer[1] 	lookupTimeSig:mean 	2.8785714285714
scalar Network.dyn_peer[1] 	lookupStabilitySig:mean 	0.86551482742652
scalar Network.dyn_peer[1] 	lookupHopsSig:mean 	27.857142857143
scalar Network.dyn_peer[2] 	lookupTimeSig:mean 	2.8727272727273
scalar Network.dyn_peer[2] 	lookupStabilitySig:mean 	0.86995607741516
scalar Network.dyn_peer[2] 	lookupHopsSig:mean 	27.818181818182
scalar Network.dyn_peer[3] 	lookupTimeSig:mean 	2.3636363636364
scalar Network.dyn_peer[3] 	lookupStabilitySig:mean 	0.84477007947862
scalar Network.dyn_peer[3] 	lookupHopsSig:mean 	22.727272727273
scalar Network.dyn_peer[4] 	lookupTimeSig:mean 	2.4571428571429
scalar Network.dyn_peer[4] 	lookupStabilitySig:mean 	0.84737612067589
scalar Network.dyn_peer[4] 	lookupHopsSig:mean 	23.642857142857
scalar Network.dyn_peer[5] 	lookupTimeSig:mean 	3.2529411764706
scalar Network.dyn_peer[5] 	lookupStabilitySig:mean 	0.87053413702832
scalar Network.dyn_peer[5] 	lookupHopsSig:mean 	31.588235294118
scalar Network.dyn_peer[6] 	lookupTimeSig:mean 	1.8666666666667
scalar Network.dyn_peer[6] 	lookupStabilitySig:mean 	0.8348011415607
scalar Network.dyn_peer[6] 	lookupHopsSig:mean 	17.75
scalar Network.dyn_peer[7] 	lookupTimeSig:mean 	2.6235294117647
scalar Network.dyn_peer[7] 	lookupStabilitySig:mean 	0.9176256148802
scalar Network.dyn_peer[7] 	lookupHopsSig:mean 	25.294117647059
scalar Network.dyn_peer[8] 	lookupTimeSig:mean 	3.0181818181818
scalar Network.dyn_peer[8] 	lookupStabilitySig:mean 	0.80425466766412
scalar Network.dyn_peer[8] 	lookupHopsSig:mean 	29.272727272727
scalar Network.dyn_peer[9] 	lookupTimeSig:mean 	2.7222222222222
scalar Network.dyn_peer[9] 	lookupStabilitySig:mean 	0.90269290534262
scalar Network.dyn_peer[9] 	lookupHopsSig:mean 	26.277777777778
scalar Network.dyn_peer[10] 	lookupTimeSig:mean 	2.4
scalar Network.dyn_peer[10] 	lookupStabilitySig:mean 	0.83868914027698
scalar Network.dyn_peer[10] 	lookupHopsSig:mean 	23.083333333333
scalar Network.dyn_peer[11] 	lookupTimeSig:mean 	1.6777777777778
scalar Network.dyn_peer[11] 	lookupStabilitySig:mean 	0.78341283980343
scalar Network.dyn_peer[11] 	lookupHopsSig:mean 	15.888888888889
scalar Network.dyn_peer[12] 	lookupTimeSig:mean 	2.1571428571429
scalar Network.dyn_peer[12] 	lookupStabilitySig:mean 	0.85783228813671
scalar Network.dyn_peer[12] 	lookupHopsSig:mean 	20.642857142857
scalar Network.dyn_peer[13] 	lookupTimeSig:mean 	2.0714285714286
scalar Network.dyn_peer[13] 	lookupStabilitySig:mean 	0.87598077547071
scalar Network.dyn_peer[13] 	lookupHopsSig:mean 	19.785714285714
scalar Network.dyn_peer[14] 	lookupTimeSig:mean 	2.1
scalar Network.dyn_peer[14] 	lookupStabilitySig:mean 	0.86395229565512
scalar Network.dyn_peer[14] 	lookupHopsSig:mean 	20.071428571429
scalar Network.dyn_peer[15] 	lookupTimeSig:mean 	1.9416666666667
scalar Network.dyn_peer[15] 	lookupStabilitySig:mean 	0.87388708791696
scalar Network.dyn_peer[15] 	lookupHopsSig:mean 	18.5
scalar Network.dyn_peer[16] 	lookupTimeSig:mean 	0.94444444444444
scalar Network.dyn_peer[16] 	lookupStabilitySig:mean 	0.79990666235487
scalar Network.dyn_peer[16] 	lookupHopsSig:mean 	8.5555555555556
scalar Network.dyn_peer[17] 	lookupTimeSig:mean 	1.26
scalar Network.dyn_peer[17] 	lookupStabilitySig:mean 	0.90388707697081
scalar Network.dyn_peer[17] 	lookupHopsSig:mean 	11.666666666667
scalar Network.dyn_peer[18] 	lookupTimeSig:mean 	2.45
scalar Network.dyn_peer[18] 	lookupStabilitySig:mean 	0.88274003866328
scalar Network.dyn_peer[18] 	lookupHopsSig:mean 	23.571428571429
scalar Network.dyn_peer[19] 	lookupTimeSig:mean 	1.9055555555556
scalar Network.dyn_peer[19] 	lookupStabilitySig:mean 	0.88978212311243
scalar Network.dyn_peer[19] 	lookupHopsSig:mean 	18.111111111111
scalar Network.dyn_peer[20] 	lookupTimeSig:mean 	2.3181818181818
scalar Network.dyn_peer[20] 	lookupStabilitySig:mean 	0.83625829245218
scalar Network.dyn_peer[20] 	lookupHopsSig:mean 	22.272727272727
scalar Network.dyn_peer[21] 	lookupTimeSig:mean 	2.5666666666667
scalar Network.dyn_peer[21] 	lookupStabilitySig:mean 	0.84709101687703
scalar Network.dyn_peer[21] 	lookupHopsSig:mean 	24.777777777778
scalar Network.dyn_peer[22] 	lookupTimeSig:mean 	2.2428571428571
scalar Network.dyn_peer[22] 	lookupStabilitySig:mean 	0.86488101278831
scalar Network.dyn_peer[22] 	lookupHopsSig:mean 	21.5
scalar Network.dyn_peer[23] 	lookupTimeSig:mean 	1.4642857142857
scalar Network.dyn_peer[23] 	lookupStabilitySig:mean 	0.88968416336658
scalar Network.dyn_peer[23] 	lookupHopsSig:mean 	13.714285714286
scalar Network.dyn_peer[24] 	lookupTimeSig:mean 	2.445
scalar Network.dyn_peer[24] 	lookupStabilitySig:mean 	0.90730644203722
scalar Network.dyn_peer[24] 	lookupHopsSig:mean 	23.5
scalar Network.dyn_peer[25] 	lookupTimeSig:mean 	1.6714285714286
scalar Network.dyn_peer[25] 	lookupStabilitySig:mean 	0.88289888522455
scalar Network.dyn_peer[25] 	lookupHopsSig:mean 	15.785714285714
scalar Network.dyn_peer[26] 	lookupTimeSig:mean 	2.005
scalar Network.dyn_peer[26] 	lookupStabilitySig:mean 	0.90827960306779
scalar Network.dyn_peer[26] 	lookupHopsSig:mean 	19.1
scalar Network.dyn_peer[27] 	lookupTimeSig:mean 	2.0333333333333
scalar Network.dyn_peer[27] 	lookupStabilitySig:mean 	0.85771172592002
scalar Network.dyn_peer[27] 	lookupHopsSig:mean 	19.444444444444
scalar Network.dyn_peer[28] 	lookupTimeSig:mean 	2.4133333333333
scalar Network.dyn_peer[28] 	lookupStabilitySig:mean 	0.88194939528281
scalar Network.dyn_peer[28] 	lookupHopsSig:mean 	23.2
scalar Network.dyn_peer[29] 	lookupTimeSig:mean 	2.9
scalar Network.dyn_peer[29] 	lookupStabilitySig:mean 	0.87294231665631
scalar Network.dyn_peer[29] 	lookupHopsSig:mean 	28.083333333333
scalar Network.dyn_peer[30] 	lookupTimeSig:mean 	2.5153846153846
scalar Network.dyn_peer[30] 	lookupStabilitySig:mean 	0.86632062673855
scalar Network.dyn_peer[30] 	lookupHopsSig:mean 	24.230769230769
scalar Network.dyn_peer[31] 	lookupTimeSig:mean 	2.3428571428571
scalar Network.dyn_peer[31] 	lookupStabilitySig:mean 	0.92200257052623
scalar Network.dyn_peer[31] 	lookupHopsSig:mean 	22.47619047619
scalar Network.dyn_peer[32] 	lookupTimeSig:mean 	1.475
scalar Network.dyn_peer[32] 	lookupStabilitySig:mean 	0.88498238101602
scalar Network.dyn_peer[32] 	lookupHopsSig:mean 	13.8125
scalar Network.dyn_peer[33] 	lookupTimeSig:mean 	1.9928571428571
scalar Network.dyn_peer[33] 	lookupStabilitySig:mean 	0.87941051407584
scalar Network.dyn_peer[33] 	lookupHopsSig:mean 	19
scalar Network.dyn_peer[34] 	lookupTimeSig:mean 	2.6238095238095
scalar Network.dyn_peer[34] 	lookupStabilitySig:mean 	0.91615070624366
scalar Network.dyn_peer[34] 	lookupHopsSig:mean 	25.285714285714
scalar Network.dyn_peer[35] 	lookupTimeSig:mean 	2.2
scalar Network.dyn_peer[35] 	lookupStabilitySig:mean 	0.89797818508783
scalar Network.dyn_peer[35] 	lookupHopsSig:mean 	21.052631578947
scalar Network.dyn_peer[36] 	lookupTimeSig:mean 	2.2857142857143
scalar Network.dyn_peer[36] 	lookupStabilitySig:mean 	0.76781266182661
scalar Network.dyn_peer[36] 	lookupHopsSig:mean 	22
scalar Network.dyn_peer[37] 	lookupTimeSig:mean 	2.375
scalar Network.dyn_peer[37] 	lookupStabilitySig:mean 	0.86454861331731
scalar Network.dyn_peer[37] 	lookupHopsSig:mean 	22.833333333333
scalar Network.dyn_peer[38] 	lookupTimeSig:mean 	2.0888888888889
scalar Network.dyn_peer[38] 	lookupStabilitySig:mean 	0.9004112360999
scalar Network.dyn_peer[38] 	lookupHopsSig:mean 	19.944444444444
scalar Network.dyn_peer[39] 	lookupTimeSig:mean 	1.7357142857143
scalar Network.dyn_peer[39] 	lookupStabilitySig:mean 	0.90574152674526
scalar Network.dyn_peer[39] 	lookupHopsSig:mean 	16.428571428571
scalar Network.dyn_peer[40] 	lookupTimeSig:mean 	2.6411764705882
scalar Network.dyn_peer[40] 	lookupStabilitySig:mean 	0.93169601157527
scalar Network.dyn_peer[40] 	lookupHopsSig:mean 	25.470588235294
scalar Network.dyn_peer[41] 	lookupTimeSig:mean 	2.9
scalar Network.dyn_peer[41] 	lookupStabilitySig:mean 	0.91256438635173
scalar Network.dyn_peer[41] 	lookupHopsSig:mean 	28.0625
scalar Network.dyn_peer[42] 	lookupTimeSig:mean 	2.4066666666667
scalar Network.dyn_peer[42] 	lookupStabilitySig:mean 	0.88547507738695
scalar Network.dyn_peer[42] 	lookupHopsSig:mean 	23.133333333333
scalar Network.dyn_peer[43] 	lookupTimeSig:mean 	2.5333333333333
scalar Network.dyn_peer[43] 	lookupStabilitySig:mean 	0.86148122519565
scalar Network.dyn_peer[43] 	lookupHopsSig:mean 	24.416666666667
scalar Network.dyn_peer[44] 	lookupTimeSig:mean 	2.4625
scalar Network.dyn_peer[44] 	lookupStabilitySig:mean 	0.90567488505621
scalar Network.dyn_peer[44] 	lookupHopsSig:mean 	23.6875
scalar Network.dyn_peer[45] 	lookupTimeSig:mean 	2.55
scalar Network.dyn_peer[45] 	lookupStabilitySig:mean 	0.89679326649223
scalar Network.dyn_peer[45] 	lookupHopsSig:mean 	24.571428571429
scalar Network.dyn_peer[46] 	lookupTimeSig:mean 	1.3818181818182
scalar Network.dyn_peer[46] 	lookupStabilitySig:mean 	0.87602853368629
scalar Network.dyn_peer[46] 	lookupHopsSig:mean 	12.909090909091
scalar Network.dyn_peer[47] 	lookupTimeSig:mean 	2.5307692307692
scalar Network.dyn_peer[47] 	lookupStabilitySig:mean 	0.91819131922407
scalar Network.dyn_peer[47] 	lookupHopsSig:mean 	24.384615384615
scalar Network.dyn_peer[48] 	lookupTimeSig:mean 	2.4357142857143
scalar Network.dyn_peer[48] 	lookupStabilitySig:mean 	0.90039654967508
scalar Network.dyn_peer[48] 	lookupHopsSig:mean 	23.428571428571
scalar Network.dyn_peer[49] 	lookupTimeSig:mean 	1.7117647058824
scalar Network.dyn_peer[49] 	lookupStabilitySig:mean 	0.91892108024673
scalar Network.dyn_peer[49] 	lookupHopsSig:mean 	16.176470588235
scalar Network.dyn_peer[50] 	lookupTimeSig:mean 	2.6153846153846
scalar Network.dyn_peer[50] 	lookupStabilitySig:mean 	0.90162143827631
scalar Network.dyn_peer[50] 	lookupHopsSig:mean 	25.230769230769
scalar Network.dyn_peer[51] 	lookupTimeSig:mean 	2.5588235294118
scalar Network.dyn_peer[51] 	lookupStabilitySig:mean 	0.8971151745166
scalar Network.dyn_peer[51] 	lookupHopsSig:mean 	24.647058823529
scalar Network.dyn_peer[52] 	lookupTimeSig:mean 	2.3166666666667
scalar Network.dyn_peer[52] 	lookupStabilitySig:mean 	0.87925155761574
scalar Network.dyn_peer[52] 	lookupHopsSig:mean 	22.25
scalar Network.dyn_peer[53] 	lookupTimeSig:mean 	2.31875
scalar Network.dyn_peer[53] 	lookupStabilitySig:mean 	0.91084388195304
scalar Network.dyn_peer[53] 	lookupHopsSig:mean 	22.25
scalar Network.dyn_peer[54] 	lookupTimeSig:mean 	2.2285714285714
scalar Network.dyn_peer[54] 	lookupStabilitySig:mean 	0.90610904226612
scalar Network.dyn_peer[54] 	lookupHopsSig:mean 	21.357142857143
scalar Network.dyn_peer[55] 	lookupTimeSig:mean 	2.1269230769231
scalar Network.dyn_peer[55] 	lookupStabilitySig:mean 	0.93978101782537
scalar Network.dyn_peer[55] 	lookupHopsSig:mean 	20.307692307692
scalar Network.dyn_peer[56] 	lookupTimeSig:mean 	2.94375
scalar Network.dyn_peer[56] 	lookupStabilitySig:mean 	0.91777403850574
scalar Network.dyn_peer[56] 	lookupHopsSig:mean 	28.5
scalar Network.dyn_peer[57] 	lookupTimeSig:mean 	2.1666666666667
scalar Network.dyn_peer[57] 	lookupStabilitySig:mean 	0.92483182062084
scalar Network.dyn_peer[57] 	lookupHopsSig:mean 	20.733333333333
scalar Network.dyn_peer[58] 	lookupTimeSig:mean 	1.4583333333333
scalar Network.dyn_peer[58] 	lookupStabilitySig:mean 	0.88433373789303
scalar Network.dyn_peer[58] 	lookupHopsSig:mean 	13.666666666667
scalar Network.dyn_peer[59] 	lookupTimeSig:mean 	2.0769230769231
scalar Network.dyn_peer[59] 	lookupStabilitySig:mean 	0.90689426101744
scalar Network.dyn_peer[59] 	lookupHopsSig:mean 	19.846153846154
scalar Network.dyn_peer[60] 	lookupTimeSig:mean 	2.15
scalar Network.dyn_peer[60] 	lookupStabilitySig:mean 	0.90687815910981
scalar Network.dyn_peer[60] 	lookupHopsSig:mean 	20.583333333333
scalar Network.dyn_peer[61] 	lookupTimeSig:mean 	3.15
scalar Network.dyn_peer[61] 	lookupStabilitySig:mean 	0.8946221084334
scalar Network.dyn_peer[61] 	lookupHopsSig:mean 	30.583333333333
scalar Network.dyn_peer[62] 	lookupTimeSig:mean 	1.4176470588235
scalar Network.dyn_peer[62] 	lookupStabilitySig:mean 	0.92985695323852
scalar Network.dyn_peer[62] 	lookupHopsSig:mean 	13.235294117647
scalar Network.dyn_peer[63] 	lookupTimeSig:mean 	1.4
scalar Network.dyn_peer[63] 	lookupStabilitySig:mean 	0.90695458326954
scalar Network.dyn_peer[63] 	lookupHopsSig:mean 	13.1
scalar Network.dyn_peer[64] 	lookupTimeSig:mean 	2.6
scalar Network.dyn_peer[64] 	lookupStabilitySig:mean 	0.93001560510934
scalar Network.dyn_peer[64] 	lookupHopsSig:mean 	25.071428571429
scalar Network.dyn_peer[65] 	lookupTimeSig:mean 	1.94
scalar Network.dyn_peer[65] 	lookupStabilitySig:mean 	0.91291804593056
scalar Network.dyn_peer[65] 	lookupHopsSig:mean 	18.466666666667
scalar Network.dyn_peer[66] 	lookupTimeSig:mean 	2.9176470588235
scalar Network.dyn_peer[66] 	lookupStabilitySig:mean 	0.90836023429737
scalar Network.dyn_peer[66] 	lookupHopsSig:mean 	28.235294117647
scalar Network.dyn_peer[67] 	lookupTimeSig:mean 	2.2928571428571
scalar Network.dyn_peer[67] 	lookupStabilitySig:mean 	0.91694463551643
scalar Network.dyn_peer[67] 	lookupHopsSig:mean 	22
scalar Network.dyn_peer[68] 	lookupTimeSig:mean 	2.1133333333333
scalar Network.dyn_peer[68] 	lookupStabilitySig:mean 	0.91731777607153
scalar Network.dyn_peer[68] 	lookupHopsSig:mean 	20.2
scalar Network.dyn_peer[69] 	lookupTimeSig:mean 	2.1666666666667
scalar Network.dyn_peer[69] 	lookupStabilitySig:mean 	0.91790805937878
scalar Network.dyn_peer[69] 	lookupHopsSig:mean 	20.733333333333
scalar Network.dyn_peer[70] 	lookupTimeSig:mean 	2.1066666666667
scalar Network.dyn_peer[70] 	lookupStabilitySig:mean 	0.9352427962857
scalar Network.dyn_peer[70] 	lookupHopsSig:mean 	20.133333333333
scalar Network.dyn_peer[71] 	lookupTimeSig:mean 	2.3333333333333
scalar Network.dyn_peer[71] 	lookupStabilitySig:mean 	0.87831094798942
scalar Network.dyn_peer[71] 	lookupHopsSig:mean 	22.444444444444
scalar Network.dyn_peer[72] 	lookupTimeSig:mean 	2.8
scalar Network.dyn_peer[72] 	lookupStabilitySig:mean 	0.89507321727631
scalar Network.dyn_peer[72] 	lookupHopsSig:mean 	27.090909090909
scalar Network.dyn_peer[73] 	lookupTimeSig:mean 	2.2
scalar Network.dyn_peer[73] 	lookupStabilitySig:mean 	0.89208365688947
scalar Network.dyn_peer[73] 	lookupHopsSig:mean 	21.090909090909
scalar Network.dyn_peer[74] 	lookupTimeSig:mean 	2.2458333333333
scalar Network.dyn_peer[74] 	lookupStabilitySig:mean 	0.94899517589753
scalar Network.dyn_peer[74] 	lookupHopsSig:mean 	21.5
scalar Network.dyn_peer[75] 	lookupTimeSig:mean 	2.1333333333333
scalar Network.dyn_peer[75] 	lookupStabilitySig:mean 	0.9159584510761
scalar Network.dyn_peer[75] 	lookupHopsSig:mean 	20.4
scalar Network.dyn_peer[76] 	lookupTimeSig:mean 	2.6666666666667
scalar Network.dyn_peer[76] 	lookupStabilitySig:mean 	0.90196482879886
scalar Network.dyn_peer[76] 	lookupHopsSig:mean 	25.75
scalar Network.dyn_peer[77] 	lookupTimeSig:mean 	2.5363636363636
scalar Network.dyn_peer[77] 	lookupStabilitySig:mean 	0.88959921540862
scalar Network.dyn_peer[77] 	lookupHopsSig:mean 	24.454545454545
scalar Network.dyn_peer[78] 	lookupTimeSig:mean 	2.7555555555556
scalar Network.dyn_peer[78] 	lookupStabilitySig:mean 	0.94185353481832
scalar Network.dyn_peer[78] 	lookupHopsSig:mean 	26.611111111111
scalar Network.dyn_peer[79] 	lookupTimeSig:mean 	1.68
scalar Network.dyn_peer[79] 	lookupStabilitySig:mean 	0.90529637075961
scalar Network.dyn_peer[79] 	lookupHopsSig:mean 	15.9
scalar Network.dyn_peer[80] 	lookupTimeSig:mean 	2.06
scalar Network.dyn_peer[80] 	lookupStabilitySig:mean 	0.94566052157898
scalar Network.dyn_peer[80] 	lookupHopsSig:mean 	19.65
scalar Network.dyn_peer[81] 	lookupTimeSig:mean 	2.5227272727273
scalar Network.dyn_peer[81] 	lookupStabilitySig:mean 	0.93898449493678
scalar Network.dyn_peer[81] 	lookupHopsSig:mean 	24.272727272727
scalar Network.dyn_peer[82] 	lookupTimeSig:mean 	1.4545454545455
scalar Network.dyn_peer[82] 	lookupStabilitySig:mean 	0.91039856464009
scalar Network.dyn_peer[82] 	lookupHopsSig:mean 	13.636363636364
scalar Network.dyn_peer[83] 	lookupTimeSig:mean 	3.0625
scalar Network.dyn_peer[83] 	lookupStabilitySig:mean 	0.92160076982691
scalar Network.dyn_peer[83] 	lookupHopsSig:mean 	29.6875
scalar Network.dyn_peer[84] 	lookupTimeSig:mean 	1.95625
scalar Network.dyn_peer[84] 	lookupStabilitySig:mean 	0.93145360253402
scalar Network.dyn_peer[84] 	lookupHopsSig:mean 	18.625
scalar Network.dyn_peer[85] 	lookupTimeSig:mean 	2.3846153846154
scalar Network.dyn_peer[85] 	lookupStabilitySig:mean 	0.92704419815877
scalar Network.dyn_peer[85] 	lookupHopsSig:mean 	22.923076923077
scalar Network.dyn_peer[86] 	lookupTimeSig:mean 	1.275
scalar Network.dyn_peer[86] 	lookupStabilitySig:mean 	0.92409668804612
scalar Network.dyn_peer[86] 	lookupHopsSig:mean 	11.833333333333
scalar Network.dyn_peer[87] 	lookupTimeSig:mean 	2.36875
scalar Network.dyn_peer[87] 	lookupStabilitySig:mean 	0.93070648034336
scalar Network.dyn_peer[87] 	lookupHopsSig:mean 	22.75
scalar Network.dyn_peer[88] 	lookupTimeSig:mean 	3.2090909090909
scalar Network.dyn_peer[88] 	lookupStabilitySig:mean 	0.9210069719702
scalar Network.dyn_peer[88] 	lookupHopsSig:mean 	31.181818181818
scalar Network.dyn_peer[89] 	lookupTimeSig:mean 	2.4428571428571
scalar Network.dyn_peer[89] 	lookupStabilitySig:mean 	0.92714420027499
scalar Network.dyn_peer[89] 	lookupHopsSig:mean 	23.5
scalar Network.dyn_peer[90] 	lookupTimeSig:mean 	2.43
scalar Network.dyn_peer[90] 	lookupStabilitySig:mean 	0.9130228120368
scalar Network.dyn_peer[90] 	lookupHopsSig:mean 	23.4
scalar Network.dyn_peer[91] 	lookupTimeSig:mean 	1.8
scalar Network.dyn_peer[91] 	lookupStabilitySig:mean 	0.920066307955
scalar Network.dyn_peer[91] 	lookupHopsSig:mean 	17.090909090909
scalar Network.dyn_peer[92] 	lookupTimeSig:mean 	3.0357142857143
scalar Network.dyn_peer[92] 	lookupStabilitySig:mean 	0.94055705963235
scalar Network.dyn_peer[92] 	lookupHopsSig:mean 	29.428571428571
scalar Network.dyn_peer[93] 	lookupTimeSig:mean 	2.6705882352941
scalar Network.dyn_peer[93] 	lookupStabilitySig:mean 	0.9539546834798
scalar Network.dyn_peer[93] 	lookupHopsSig:mean 	25.764705882353
scalar Network.dyn_peer[94] 	lookupTimeSig:mean 	2.55
scalar Network.dyn_peer[94] 	lookupStabilitySig:mean 	0.95469995696013
scalar Network.dyn_peer[94] 	lookupHopsSig:mean 	24.545454545455
scalar Network.dyn_peer[95] 	lookupTimeSig:mean 	1.5090909090909
scalar Network.dyn_peer[95] 	lookupStabilitySig:mean 	0.92869385772131
scalar Network.dyn_peer[95] 	lookupHopsSig:mean 	14.181818181818
scalar Network.dyn_peer[96] 	lookupTimeSig:mean 	2
scalar Network.dyn_peer[96] 	lookupStabilitySig:mean 	0.90817412037656
scalar Network.dyn_peer[96] 	lookupHopsSig:mean 	19.090909090909
scalar Network.dyn_peer[97] 	lookupTimeSig:mean 	2.1529411764706
scalar Network.dyn_peer[97] 	lookupStabilitySig:mean 	0.9280956434086
scalar Network.dyn_peer[97] 	lookupHopsSig:mean 	20.588235294118
scalar Network.dyn_peer[98] 	lookupTimeSig:mean 	3.0214285714286
scalar Network.dyn_peer[98] 	lookupStabilitySig:mean 	0.91776290143441
scalar Network.dyn_peer[98] 	lookupHopsSig:mean 	29.285714285714
scalar Network.dyn_peer[99] 	lookupTimeSig:mean 	1.75
scalar Network.dyn_peer[99] 	lookupStabilitySig:mean 	0.94328755117022
scalar Network.dyn_peer[99] 	lookupHopsSig:mean 	16.5625
scalar Network.dyn_peer[100] 	lookupTimeSig:mean 	2.5214285714286
scalar Network.dyn_peer[100] 	lookupStabilitySig:mean 	0.91566067847556
scalar Network.dyn_peer[100] 	lookupHopsSig:mean 	24.285714285714
scalar Network.dyn_peer[101] 	lookupTimeSig:mean 	2.3789473684211
scalar Network.dyn_peer[101] 	lookupStabilitySig:mean 	0.94671663538994
scalar Network.dyn_peer[101] 	lookupHopsSig:mean 	22.842105263158
scalar Network.dyn_peer[102] 	lookupTimeSig:mean 	1.8428571428571
scalar Network.dyn_peer[102] 	lookupStabilitySig:mean 	0.89749469568155
scalar Network.dyn_peer[102] 	lookupHopsSig:mean 	17.571428571429
scalar Network.dyn_peer[103] 	lookupTimeSig:mean 	1.3428571428571
scalar Network.dyn_peer[103] 	lookupStabilitySig:mean 	0.92951707206001
scalar Network.dyn_peer[103] 	lookupHopsSig:mean 	12.5
scalar Network.dyn_peer[104] 	lookupTimeSig:mean 	2.4789473684211
scalar Network.dyn_peer[104] 	lookupStabilitySig:mean 	0.94181837237097
scalar Network.dyn_peer[104] 	lookupHopsSig:mean 	23.842105263158
scalar Network.dyn_peer[105] 	lookupTimeSig:mean 	2.91
scalar Network.dyn_peer[105] 	lookupStabilitySig:mean 	0.91749093616381
scalar Network.dyn_peer[105] 	lookupHopsSig:mean 	28.2
scalar Network.dyn_peer[106] 	lookupTimeSig:mean 	2.4823529411765
scalar Network.dyn_peer[106] 	lookupStabilitySig:mean 	0.94085949655239
scalar Network.dyn_peer[106] 	lookupHopsSig:mean 	23.882352941176
scalar Network.dyn_peer[107] 	lookupTimeSig:mean 	2.5333333333333
scalar Network.dyn_peer[107] 	lookupStabilitySig:mean 	0.91936816453623
scalar Network.dyn_peer[107] 	lookupHopsSig:mean 	24.416666666667
scalar Network.dyn_peer[108] 	lookupTimeSig:mean 	1.7727272727273
scalar Network.dyn_peer[108] 	lookupStabilitySig:mean 	0.93267296628751
scalar Network.dyn_peer[108] 	lookupHopsSig:mean 	16.818181818182
scalar Network.dyn_peer[109] 	lookupTimeSig:mean 	2.7307692307692
scalar Network.dyn_peer[109] 	lookupStabilitySig:mean 	0.92719372376226
scalar Network.dyn_peer[109] 	lookupHopsSig:mean 	26.384615384615
scalar Network.dyn_peer[110] 	lookupTimeSig:mean 	2.1777777777778
scalar Network.dyn_peer[110] 	lookupStabilitySig:mean 	0.94408760884026
scalar Network.dyn_peer[110] 	lookupHopsSig:mean 	20.833333333333
scalar Network.dyn_peer[111] 	lookupTimeSig:mean 	2.4666666666667
scalar Network.dyn_peer[111] 	lookupStabilitySig:mean 	0.95563600370466
scalar Network.dyn_peer[111] 	lookupHopsSig:mean 	23.708333333333
scalar Network.dyn_peer[112] 	lookupTimeSig:mean 	1.56
scalar Network.dyn_peer[112] 	lookupStabilitySig:mean 	0.93465081034228
scalar Network.dyn_peer[112] 	lookupHopsSig:mean 	14.7
scalar Network.dyn_peer[113] 	lookupTimeSig:mean 	2.15
scalar Network.dyn_peer[113] 	lookupStabilitySig:mean 	0.92658946861047
scalar Network.dyn_peer[113] 	lookupHopsSig:mean 	20.583333333333
scalar Network.dyn_peer[114] 	lookupTimeSig:mean 	1.6294117647059
scalar Network.dyn_peer[114] 	lookupStabilitySig:mean 	0.95326892902855
scalar Network.dyn_peer[114] 	lookupHopsSig:mean 	15.352941176471
scalar Network.dyn_peer[115] 	lookupTimeSig:mean 	2.4454545454545
scalar Network.dyn_peer[115] 	lookupStabilitySig:mean 	0.92182894626802
scalar Network.dyn_peer[115] 	lookupHopsSig:mean 	23.545454545455
scalar Network.dyn_peer[116] 	lookupTimeSig:mean 	1.8230769230769
scalar Network.dyn_peer[116] 	lookupStabilitySig:mean 	0.92187792693193
scalar Network.dyn_peer[116] 	lookupHopsSig:mean 	17.307692307692
scalar Network.dyn_peer[117] 	lookupTimeSig:mean 	1.6117647058824
scalar Network.dyn_peer[117] 	lookupStabilitySig:mean 	0.94880546292509
scalar Network.dyn_peer[117] 	lookupHopsSig:mean 	15.176470588235
scalar Network.dyn_peer[118] 	lookupTimeSig:mean 	2.1818181818182
scalar Network.dyn_peer[118] 	lookupStabilitySig:mean 	0.93025128482523
scalar Network.dyn_peer[118] 	lookupHopsSig:mean 	20.909090909091
scalar Network.dyn_peer[119] 	lookupTimeSig:mean 	2.7545454545455
scalar Network.dyn_peer[119] 	lookupStabilitySig:mean 	0.91647106815468
scalar Network.dyn_peer[119] 	lookupHopsSig:mean 	26.636363636364
scalar Network.dyn_peer[120] 	lookupTimeSig:mean 	1.93125
scalar Network.dyn_peer[120] 	lookupStabilitySig:mean 	0.95372770467657
scalar Network.dyn_peer[120] 	lookupHopsSig:mean 	18.375
scalar Network.dyn_peer[121] 	lookupTimeSig:mean 	2.1583333333333
scalar Network.dyn_peer[121] 	lookupStabilitySig:mean 	0.92603045818396
scalar Network.dyn_peer[121] 	lookupHopsSig:mean 	20.666666666667
scalar Network.dyn_peer[122] 	lookupTimeSig:mean 	2.2909090909091
scalar Network.dyn_peer[122] 	lookupStabilitySig:mean 	0.96337692619471
scalar Network.dyn_peer[122] 	lookupHopsSig:mean 	21.954545454545
scalar Network.dyn_peer[123] 	lookupTimeSig:mean 	1.3125
scalar Network.dyn_peer[123] 	lookupStabilitySig:mean 	0.9154291417799
scalar Network.dyn_peer[123] 	lookupHopsSig:mean 	12.25
scalar Network.dyn_peer[124] 	lookupTimeSig:mean 	2.26
scalar Network.dyn_peer[124] 	lookupStabilitySig:mean 	0.92729149584193
scalar Network.dyn_peer[124] 	lookupHopsSig:mean 	21.7
scalar Network.dyn_peer[125] 	lookupTimeSig:mean 	2.4176470588235
scalar Network.dyn_peer[125] 	lookupStabilitySig:mean 	0.9613148572663
scalar Network.dyn_peer[125] 	lookupHopsSig:mean 	23.235294117647
scalar Network.dyn_peer[126] 	lookupTimeSig:mean 	2.2842105263158
scalar Network.dyn_peer[126] 	lookupStabilitySig:mean 	0.94355372444874
scalar Network.dyn_peer[126] 	lookupHopsSig:mean 	21.894736842105
scalar Network.dyn_peer[127] 	lookupTimeSig:mean 	2.74375
scalar Network.dyn_peer[127] 	lookupStabilitySig:mean 	0.94023211282911
scalar Network.dyn_peer[127] 	lookupHopsSig:mean 	26.5
scalar Network.dyn_peer[128] 	lookupTimeSig:mean 	2.5157894736842
scalar Network.dyn_peer[128] 	lookupStabilitySig:mean 	0.94694676117874
scalar Network.dyn_peer[128] 	lookupHopsSig:mean 	24.210526315789
scalar Network.dyn_peer[129] 	lookupTimeSig:mean 	2.0315789473684
scalar Network.dyn_peer[129] 	lookupStabilitySig:mean 	0.94927537203521
scalar Network.dyn_peer[129] 	lookupHopsSig:mean 	19.368421052632
scalar Network.dyn_peer[130] 	lookupTimeSig:mean 	3
scalar Network.dyn_peer[130] 	lookupStabilitySig:mean 	0.90241277164647
scalar Network.dyn_peer[130] 	lookupHopsSig:mean 	29.142857142857
scalar Network.dyn_peer[131] 	lookupTimeSig:mean 	1.3
scalar Network.dyn_peer[131] 	lookupStabilitySig:mean 	0.90353915534381
scalar Network.dyn_peer[131] 	lookupHopsSig:mean 	12.142857142857
scalar Network.dyn_peer[132] 	lookupTimeSig:mean 	0.85
scalar Network.dyn_peer[132] 	lookupStabilitySig:mean 	0.8603488127701
scalar Network.dyn_peer[132] 	lookupHopsSig:mean 	7.75
scalar Network.dyn_peer[133] 	lookupTimeSig:mean 	1.0111111111111
scalar Network.dyn_peer[133] 	lookupStabilitySig:mean 	0.92384212003607
scalar Network.dyn_peer[133] 	lookupHopsSig:mean 	9.2222222222222
scalar Network.dyn_peer[134] 	lookupTimeSig:mean 	1.9444444444444
scalar Network.dyn_peer[134] 	lookupStabilitySig:mean 	0.93178079567022
scalar Network.dyn_peer[134] 	lookupHopsSig:mean 	18.555555555556
scalar Network.dyn_peer[135] 	lookupTimeSig:mean 	2.7611111111111
scalar Network.dyn_peer[135] 	lookupStabilitySig:mean 	0.94696141738031
scalar Network.dyn_peer[135] 	lookupHopsSig:mean 	26.666666666667
scalar Network.dyn_peer[136] 	lookupTimeSig:mean 	2.1636363636364
scalar Network.dyn_peer[136] 	lookupStabilitySig:mean 	0.91903406648304
scalar Network.dyn_peer[136] 	lookupHopsSig:mean 	20.727272727273
scalar Network.dyn_peer[137] 	lookupTimeSig:mean 	2.45625
scalar Network.dyn_peer[137] 	lookupStabilitySig:mean 	0.94208286301
scalar Network.dyn_peer[137] 	lookupHopsSig:mean 	23.625
scalar Network.dyn_peer[138] 	lookupTimeSig:mean 	1.8181818181818
scalar Network.dyn_peer[138] 	lookupStabilitySig:mean 	0.91985813612965
scalar Network.dyn_peer[138] 	lookupHopsSig:mean 	17.272727272727
scalar Network.dyn_peer[139] 	lookupTimeSig:mean 	2.4785714285714
scalar Network.dyn_peer[139] 	lookupStabilitySig:mean 	0.93649859179277
scalar Network.dyn_peer[139] 	lookupHopsSig:mean 	23.857142857143
scalar Network.dyn_peer[140] 	lookupTimeSig:mean 	2.3333333333333
scalar Network.dyn_peer[140] 	lookupStabilitySig:mean 	0.95047664378459
scalar Network.dyn_peer[140] 	lookupHopsSig:mean 	22.416666666667
scalar Network.dyn_peer[141] 	lookupTimeSig:mean 	2.1277777777778
scalar Network.dyn_peer[141] 	lookupStabilitySig:mean 	0.95242043863982
scalar Network.dyn_peer[141] 	lookupHopsSig:mean 	20.333333333333
scalar Network.dyn_peer[142] 	lookupTimeSig:mean 	2.2066666666667
scalar Network.dyn_peer[142] 	lookupStabilitySig:mean 	0.93970062401301
scalar Network.dyn_peer[142] 	lookupHopsSig:mean 	21.133333333333
scalar Network.dyn_peer[143] 	lookupTimeSig:mean 	0.8
scalar Network.dyn_peer[143] 	lookupStabilitySig:mean 	0.88692962117493
scalar Network.dyn_peer[143] 	lookupHopsSig:mean 	7.2
scalar Network.dyn_peer[144] 	lookupTimeSig:mean 	2.73
scalar Network.dyn_peer[144] 	lookupStabilitySig:mean 	0.92055310942233
scalar Network.dyn_peer[144] 	lookupHopsSig:mean 	26.4
scalar Network.dyn_peer[145] 	lookupTimeSig:mean 	2.5
scalar Network.dyn_peer[145] 	lookupStabilitySig:mean 	0.92748603597283
scalar Network.dyn_peer[145] 	lookupHopsSig:mean 	24.1
scalar Network.dyn_peer[146] 	lookupTimeSig:mean 	2.4
scalar Network.dyn_peer[146] 	lookupStabilitySig:mean 	0.95284252092501
scalar Network.dyn_peer[146] 	lookupHopsSig:mean 	23.055555555556
scalar Network.dyn_peer[147] 	lookupTimeSig:mean 	2.6857142857143
scalar Network.dyn_peer[147] 	lookupStabilitySig:mean 	0.94147765357047
scalar Network.dyn_peer[147] 	lookupHopsSig:mean 	25.928571428571
scalar Network.dyn_peer[148] 	lookupTimeSig:mean 	2.2636363636364
scalar Network.dyn_peer[148] 	lookupStabilitySig:mean 	0.93483736734329
scalar Network.dyn_peer[148] 	lookupHopsSig:mean 	21.727272727273
scalar Network.dyn_peer[149] 	lookupTimeSig:mean 	1.9434782608696
scalar Network.dyn_peer[149] 	lookupStabilitySig:mean 	0.96296684706138
scalar Network.dyn_peer[149] 	lookupHopsSig:mean 	18.478260869565
scalar Network.dyn_peer[150] 	lookupTimeSig:mean 	1.6818181818182
scalar Network.dyn_peer[150] 	lookupStabilitySig:mean 	0.92867074856027
scalar Network.dyn_peer[150] 	lookupHopsSig:mean 	15.909090909091
scalar Network.dyn_peer[151] 	lookupTimeSig:mean 	2.3230769230769
scalar Network.dyn_peer[151] 	lookupStabilitySig:mean 	0.93795224773483
scalar Network.dyn_peer[151] 	lookupHopsSig:mean 	22.307692307692
scalar Network.dyn_peer[152] 	lookupTimeSig:mean 	2.35625
scalar Network.dyn_peer[152] 	lookupStabilitySig:mean 	0.94804269593442
scalar Network.dyn_peer[152] 	lookupHopsSig:mean 	22.625
scalar Network.dyn_peer[153] 	lookupTimeSig:mean 	1.7444444444444
scalar Network.dyn_peer[153] 	lookupStabilitySig:mean 	0.93594107502658
scalar Network.dyn_peer[153] 	lookupHopsSig:mean 	16.555555555556
scalar Network.dyn_peer[154] 	lookupTimeSig:mean 	2.1157894736842
scalar Network.dyn_peer[154] 	lookupStabilitySig:mean 	0.95345256774147
scalar Network.dyn_peer[154] 	lookupHopsSig:mean 	20.210526315789
scalar Network.dyn_peer[155] 	lookupTimeSig:mean 	2.7
scalar Network.dyn_peer[155] 	lookupStabilitySig:mean 	0.93978334504824
scalar Network.dyn_peer[155] 	lookupHopsSig:mean 	26.076923076923
scalar Network.dyn_peer[156] 	lookupTimeSig:mean 	2.2461538461538
scalar Network.dyn_peer[156] 	lookupStabilitySig:mean 	0.9356834670672
scalar Network.dyn_peer[156] 	lookupHopsSig:mean 	21.538461538462
scalar Network.dyn_peer[157] 	lookupTimeSig:mean 	2.3818181818182
scalar Network.dyn_peer[157] 	lookupStabilitySig:mean 	0.95695203937463
scalar Network.dyn_peer[157] 	lookupHopsSig:mean 	22.863636363636
scalar Network.dyn_peer[158] 	lookupTimeSig:mean 	2.3176470588235
scalar Network.dyn_peer[158] 	lookupStabilitySig:mean 	0.95169466985937
scalar Network.dyn_peer[158] 	lookupHopsSig:mean 	22.235294117647
scalar Network.dyn_peer[159] 	lookupTimeSig:mean 	2.1866666666667
scalar Network.dyn_peer[159] 	lookupStabilitySig:mean 	0.95133842459569
scalar Network.dyn_peer[159] 	lookupHopsSig:mean 	20.933333333333
scalar Network.dyn_peer[160] 	lookupTimeSig:mean 	2.5105263157895
scalar Network.dyn_peer[160] 	lookupStabilitySig:mean 	0.95492614870646
scalar Network.dyn_peer[160] 	lookupHopsSig:mean 	24.157894736842
scalar Network.dyn_peer[161] 	lookupTimeSig:mean 	2.025
scalar Network.dyn_peer[161] 	lookupStabilitySig:mean 	0.95622525720391
scalar Network.dyn_peer[161] 	lookupHopsSig:mean 	19.3
scalar Network.dyn_peer[162] 	lookupTimeSig:mean 	1.95
scalar Network.dyn_peer[162] 	lookupStabilitySig:mean 	0.949789835858
scalar Network.dyn_peer[162] 	lookupHopsSig:mean 	18.583333333333
scalar Network.dyn_peer[163] 	lookupTimeSig:mean 	2.7611111111111
scalar Network.dyn_peer[163] 	lookupStabilitySig:mean 	0.94842937232978
scalar Network.dyn_peer[163] 	lookupHopsSig:mean 	26.666666666667
scalar Network.dyn_peer[164] 	lookupTimeSig:mean 	3.73
scalar Network.dyn_peer[164] 	lookupStabilitySig:mean 	0.92590372348204
scalar Network.dyn_peer[164] 	lookupHopsSig:mean 	36.4
scalar Network.dyn_peer[165] 	lookupTimeSig:mean 	1.8545454545455
scalar Network.dyn_peer[165] 	lookupStabilitySig:mean 	0.93016231161627
scalar Network.dyn_peer[165] 	lookupHopsSig:mean 	17.636363636364
scalar Network.dyn_peer[166] 	lookupTimeSig:mean 	2.0684210526316
scalar Network.dyn_peer[166] 	lookupStabilitySig:mean 	0.95710858460026
scalar Network.dyn_peer[166] 	lookupHopsSig:mean 	19.736842105263
scalar Network.dyn_peer[167] 	lookupTimeSig:mean 	2.0166666666667
scalar Network.dyn_peer[167] 	lookupStabilitySig:mean 	0.9654886539922
scalar Network.dyn_peer[167] 	lookupHopsSig:mean 	19.222222222222
scalar Network.dyn_peer[168] 	lookupTimeSig:mean 	1.5684210526316
scalar Network.dyn_peer[168] 	lookupStabilitySig:mean 	0.95350866448624
scalar Network.dyn_peer[168] 	lookupHopsSig:mean 	14.736842105263
scalar Network.dyn_peer[169] 	lookupTimeSig:mean 	2.0666666666667
scalar Network.dyn_peer[169] 	lookupStabilitySig:mean 	0.93341479667773
scalar Network.dyn_peer[169] 	lookupHopsSig:mean 	19.75
scalar Network.dyn_peer[170] 	lookupTimeSig:mean 	2.1111111111111
scalar Network.dyn_peer[170] 	lookupStabilitySig:mean 	0.95969435008657
scalar Network.dyn_peer[170] 	lookupHopsSig:mean 	20.166666666667
scalar Network.dyn_peer[171] 	lookupTimeSig:mean 	2.8
scalar Network.dyn_peer[171] 	lookupStabilitySig:mean 	0.94386273552664
scalar Network.dyn_peer[171] 	lookupHopsSig:mean 	27.083333333333
scalar Network.dyn_peer[172] 	lookupTimeSig:mean 	3.8666666666667
scalar Network.dyn_peer[172] 	lookupStabilitySig:mean 	0.93062856979668
scalar Network.dyn_peer[172] 	lookupHopsSig:mean 	37.777777777778
scalar Network.dyn_peer[173] 	lookupTimeSig:mean 	1.2285714285714
scalar Network.dyn_peer[173] 	lookupStabilitySig:mean 	0.91610932084067
scalar Network.dyn_peer[173] 	lookupHopsSig:mean 	11.428571428571
scalar Network.dyn_peer[174] 	lookupTimeSig:mean 	2.4833333333333
scalar Network.dyn_peer[174] 	lookupStabilitySig:mean 	0.93008485878818
scalar Network.dyn_peer[174] 	lookupHopsSig:mean 	23.916666666667
scalar Network.dyn_peer[175] 	lookupTimeSig:mean 	1.4473684210526
scalar Network.dyn_peer[175] 	lookupStabilitySig:mean 	0.95543658791269
scalar Network.dyn_peer[175] 	lookupHopsSig:mean 	13.526315789474
scalar Network.dyn_peer[176] 	lookupTimeSig:mean 	2.1571428571429
scalar Network.dyn_peer[176] 	lookupStabilitySig:mean 	0.94275248203693
scalar Network.dyn_peer[176] 	lookupHopsSig:mean 	20.642857142857
scalar Network.dyn_peer[177] 	lookupTimeSig:mean 	1.9882352941176
scalar Network.dyn_peer[177] 	lookupStabilitySig:mean 	0.94896793381914
scalar Network.dyn_peer[177] 	lookupHopsSig:mean 	18.941176470588
scalar Network.dyn_peer[178] 	lookupTimeSig:mean 	2.0947368421053
scalar Network.dyn_peer[178] 	lookupStabilitySig:mean 	0.95566547136313
scalar Network.dyn_peer[178] 	lookupHopsSig:mean 	20
scalar Network.dyn_peer[179] 	lookupTimeSig:mean 	1.5538461538462
scalar Network.dyn_peer[179] 	lookupStabilitySig:mean 	0.94686716907801
scalar Network.dyn_peer[179] 	lookupHopsSig:mean 	14.615384615385
scalar Network.dyn_peer[180] 	lookupTimeSig:mean 	1.84
scalar Network.dyn_peer[180] 	lookupStabilitySig:mean 	0.96280229327579
scalar Network.dyn_peer[180] 	lookupHopsSig:mean 	17.466666666667
scalar Network.dyn_peer[181] 	lookupTimeSig:mean 	1.95
scalar Network.dyn_peer[181] 	lookupStabilitySig:mean 	0.97118924253543
scalar Network.dyn_peer[181] 	lookupHopsSig:mean 	18.541666666667
scalar Network.dyn_peer[182] 	lookupTimeSig:mean 	2.9
scalar Network.dyn_peer[182] 	lookupStabilitySig:mean 	0.92226527119055
scalar Network.dyn_peer[182] 	lookupHopsSig:mean 	28.125
scalar Network.dyn_peer[183] 	lookupTimeSig:mean 	2.2
scalar Network.dyn_peer[183] 	lookupStabilitySig:mean 	0.93963685206005
scalar Network.dyn_peer[183] 	lookupHopsSig:mean 	21.071428571429
scalar Network.dyn_peer[184] 	lookupTimeSig:mean 	2.7277777777778
scalar Network.dyn_peer[184] 	lookupStabilitySig:mean 	0.95673697428881
scalar Network.dyn_peer[184] 	lookupHopsSig:mean 	26.333333333333
scalar Network.dyn_peer[185] 	lookupTimeSig:mean 	2.15625
scalar Network.dyn_peer[185] 	lookupStabilitySig:mean 	0.94833960342658
scalar Network.dyn_peer[185] 	lookupHopsSig:mean 	20.625
scalar Network.dyn_peer[186] 	lookupTimeSig:mean 	2.375
scalar Network.dyn_peer[186] 	lookupStabilitySig:mean 	0.93814784187513
scalar Network.dyn_peer[186] 	lookupHopsSig:mean 	22.833333333333
scalar Network.dyn_peer[187] 	lookupTimeSig:mean 	2.045
scalar Network.dyn_peer[187] 	lookupStabilitySig:mean 	0.95934844003059
scalar Network.dyn_peer[187] 	lookupHopsSig:mean 	19.5
scalar Network.dyn_peer[188] 	lookupTimeSig:mean 	1.8916666666667
scalar Network.dyn_peer[188] 	lookupStabilitySig:mean 	0.94189689587802
scalar Network.dyn_peer[188] 	lookupHopsSig:mean 	18
scalar Network.dyn_peer[189] 	lookupTimeSig:mean 	1.8571428571429
scalar Network.dyn_peer[189] 	lookupStabilitySig:mean 	0.94985582383483
scalar Network.dyn_peer[189] 	lookupHopsSig:mean 	17.642857142857
scalar Network.dyn_peer[190] 	lookupTimeSig:mean 	3.0526315789474
scalar Network.dyn_peer[190] 	lookupStabilitySig:mean 	0.95387073976331
scalar Network.dyn_peer[190] 	lookupHopsSig:mean 	29.578947368421
scalar Network.dyn_peer[191] 	lookupTimeSig:mean 	2.2363636363636
scalar Network.dyn_peer[191] 	lookupStabilitySig:mean 	0.96302929030075
scalar Network.dyn_peer[191] 	lookupHopsSig:mean 	21.409090909091
scalar Network.dyn_peer[192] 	lookupTimeSig:mean 	3.4222222222222
scalar Network.dyn_peer[192] 	lookupStabilitySig:mean 	0.92221159218914
scalar Network.dyn_peer[192] 	lookupHopsSig:mean 	33.333333333333
scalar Network.dyn_peer[193] 	lookupTimeSig:mean 	2.9380952380952
scalar Network.dyn_peer[193] 	lookupStabilitySig:mean 	0.96477408541943
scalar Network.dyn_peer[193] 	lookupHopsSig:mean 	28.428571428571
scalar Network.dyn_peer[194] 	lookupTimeSig:mean 	2.4277777777778
scalar Network.dyn_peer[194] 	lookupStabilitySig:mean 	0.9522611062922
scalar Network.dyn_peer[194] 	lookupHopsSig:mean 	23.333333333333
scalar Network.dyn_peer[195] 	lookupTimeSig:mean 	2.3285714285714
scalar Network.dyn_peer[195] 	lookupStabilitySig:mean 	0.96197997146685
scalar Network.dyn_peer[195] 	lookupHopsSig:mean 	22.333333333333
scalar Network.dyn_peer[196] 	lookupTimeSig:mean 	1.3
scalar Network.dyn_peer[196] 	lookupStabilitySig:mean 	0.94337543254046
scalar Network.dyn_peer[196] 	lookupHopsSig:mean 	12.111111111111
scalar Network.dyn_peer[197] 	lookupTimeSig:mean 	2.3263157894737
scalar Network.dyn_peer[197] 	lookupStabilitySig:mean 	0.96088296380874
scalar Network.dyn_peer[197] 	lookupHopsSig:mean 	22.315789473684
scalar Network.dyn_peer[198] 	lookupTimeSig:mean 	1.9666666666667
scalar Network.dyn_peer[198] 	lookupStabilitySig:mean 	0.94975921701795
scalar Network.dyn_peer[198] 	lookupHopsSig:mean 	18.75
scalar Network.dyn_peer[199] 	lookupTimeSig:mean 	2.7428571428571
scalar Network.dyn_peer[199] 	lookupStabilitySig:mean 	0.95493160793558
scalar Network.dyn_peer[199] 	lookupHopsSig:mean 	26.5
scalar Network.dyn_peer[200] 	lookupTimeSig:mean 	2.7
scalar Network.dyn_peer[200] 	lookupStabilitySig:mean 	0.90616001710296
scalar Network.dyn_peer[200] 	lookupHopsSig:mean 	26.2
scalar Network.dyn_peer[201] 	lookupTimeSig:mean 	2.08
scalar Network.dyn_peer[201] 	lookupStabilitySig:mean 	0.95619809559236
scalar Network.dyn_peer[201] 	lookupHopsSig:mean 	19.866666666667
scalar Network.dyn_peer[202] 	lookupTimeSig:mean 	1.3555555555556
scalar Network.dyn_peer[202] 	lookupStabilitySig:mean 	0.93842295236472
scalar Network.dyn_peer[202] 	lookupHopsSig:mean 	12.666666666667
scalar Network.dyn_peer[203] 	lookupTimeSig:mean 	2.16875
scalar Network.dyn_peer[203] 	lookupStabilitySig:mean 	0.95683528878726
scalar Network.dyn_peer[203] 	lookupHopsSig:mean 	20.75
scalar Network.dyn_peer[204] 	lookupTimeSig:mean 	3.1444444444444
scalar Network.dyn_peer[204] 	lookupStabilitySig:mean 	0.9333570321194
scalar Network.dyn_peer[204] 	lookupHopsSig:mean 	30.555555555556
scalar Network.dyn_peer[205] 	lookupTimeSig:mean 	2.38
scalar Network.dyn_peer[205] 	lookupStabilitySig:mean 	0.95264557559664
scalar Network.dyn_peer[205] 	lookupHopsSig:mean 	22.866666666667
scalar Network.dyn_peer[206] 	lookupTimeSig:mean 	2.525
scalar Network.dyn_peer[206] 	lookupStabilitySig:mean 	0.95598075169255
scalar Network.dyn_peer[206] 	lookupHopsSig:mean 	24.3125
scalar Network.dyn_peer[207] 	lookupTimeSig:mean 	3.2888888888889
scalar Network.dyn_peer[207] 	lookupStabilitySig:mean 	0.96266784024192
scalar Network.dyn_peer[207] 	lookupHopsSig:mean 	31.944444444444
scalar Network.dyn_peer[208] 	lookupTimeSig:mean 	2.3529411764706
scalar Network.dyn_peer[208] 	lookupStabilitySig:mean 	0.95525190445101
scalar Network.dyn_peer[208] 	lookupHopsSig:mean 	22.588235294118
scalar Network.dyn_peer[209] 	lookupTimeSig:mean 	2.18
scalar Network.dyn_peer[209] 	lookupStabilitySig:mean 	0.94333132756874
scalar Network.dyn_peer[209] 	lookupHopsSig:mean 	20.9
scalar Network.dyn_peer[210] 	lookupTimeSig:mean 	2.7666666666667
scalar Network.dyn_peer[210] 	lookupStabilitySig:mean 	0.94231430875758
scalar Network.dyn_peer[210] 	lookupHopsSig:mean 	26.75
scalar Network.dyn_peer[211] 	lookupTimeSig:mean 	2.324
scalar Network.dyn_peer[211] 	lookupStabilitySig:mean 	0.96559522369877
scalar Network.dyn_peer[211] 	lookupHopsSig:mean 	22.28
scalar Network.dyn_peer[212] 	lookupTimeSig:mean 	3.5909090909091
scalar Network.dyn_peer[212] 	lookupStabilitySig:mean 	0.95515949194404
scalar Network.dyn_peer[212] 	lookupHopsSig:mean 	35
scalar Network.dyn_peer[213] 	lookupTimeSig:mean 	2.175
scalar Network.dyn_peer[213] 	lookupStabilitySig:mean 	0.94249329118369
scalar Network.dyn_peer[213] 	lookupHopsSig:mean 	20.833333333333
scalar Network.dyn_peer[214] 	lookupTimeSig:mean 	3.42
scalar Network.dyn_peer[214] 	lookupStabilitySig:mean 	0.9293908432126
scalar Network.dyn_peer[214] 	lookupHopsSig:mean 	33.4
scalar Network.dyn_peer[215] 	lookupTimeSig:mean 	2.4384615384615
scalar Network.dyn_peer[215] 	lookupStabilitySig:mean 	0.95298072000822
scalar Network.dyn_peer[215] 	lookupHopsSig:mean 	23.461538461538
scalar Network.dyn_peer[216] 	lookupTimeSig:mean 	2.625
scalar Network.dyn_peer[216] 	lookupStabilitySig:mean 	0.94994471676182
scalar Network.dyn_peer[216] 	lookupHopsSig:mean 	25.333333333333
scalar Network.dyn_peer[217] 	lookupTimeSig:mean 	2.2875
scalar Network.dyn_peer[217] 	lookupStabilitySig:mean 	0.93150014313869
scalar Network.dyn_peer[217] 	lookupHopsSig:mean 	22
scalar Network.dyn_peer[218] 	lookupTimeSig:mean 	2.2
scalar Network.dyn_peer[218] 	lookupStabilitySig:mean 	0.95231001474895
scalar Network.dyn_peer[218] 	lookupHopsSig:mean 	21.125
scalar Network.dyn_peer[219] 	lookupTimeSig:mean 	2.25
scalar Network.dyn_peer[219] 	lookupStabilitySig:mean 	0.96336106886156
scalar Network.dyn_peer[219] 	lookupHopsSig:mean 	21.55
scalar Network.dyn_peer[220] 	lookupTimeSig:mean 	2.4777777777778
scalar Network.dyn_peer[220] 	lookupStabilitySig:mean 	0.93115590595537
scalar Network.dyn_peer[220] 	lookupHopsSig:mean 	23.888888888889
scalar Network.dyn_peer[221] 	lookupTimeSig:mean 	2.02
scalar Network.dyn_peer[221] 	lookupStabilitySig:mean 	0.96072322047936
scalar Network.dyn_peer[221] 	lookupHopsSig:mean 	19.266666666667
scalar Network.dyn_peer[222] 	lookupTimeSig:mean 	3.2928571428571
scalar Network.dyn_peer[222] 	lookupStabilitySig:mean 	0.94908211815969
scalar Network.dyn_peer[222] 	lookupHopsSig:mean 	32
scalar Network.dyn_peer[223] 	lookupTimeSig:mean 	1.5583333333333
scalar Network.dyn_peer[223] 	lookupStabilitySig:mean 	0.96140433537463
scalar Network.dyn_peer[223] 	lookupHopsSig:mean 	14.666666666667
scalar Network.dyn_peer[224] 	lookupTimeSig:mean 	2.4181818181818
scalar Network.dyn_peer[224] 	lookupStabilitySig:mean 	0.96504210169554
scalar Network.dyn_peer[224] 	lookupHopsSig:mean 	23.227272727273
scalar Network.dyn_peer[225] 	lookupTimeSig:mean 	2.3368421052632
scalar Network.dyn_peer[225] 	lookupStabilitySig:mean 	0.96855040705812
scalar Network.dyn_peer[225] 	lookupHopsSig:mean 	22.421052631579
scalar Network.dyn_peer[226] 	lookupTimeSig:mean 	1.3823529411765
scalar Network.dyn_peer[226] 	lookupStabilitySig:mean 	0.96581099390545
scalar Network.dyn_peer[226] 	lookupHopsSig:mean 	12.882352941176
scalar Network.dyn_peer[227] 	lookupTimeSig:mean 	2.4894736842105
scalar Network.dyn_peer[227] 	lookupStabilitySig:mean 	0.96081218342787
scalar Network.dyn_peer[227] 	lookupHopsSig:mean 	23.947368421053
scalar Network.dyn_peer[228] 	lookupTimeSig:mean 	2.4909090909091
scalar Network.dyn_peer[228] 	lookupStabilitySig:mean 	0.96360456854613
scalar Network.dyn_peer[228] 	lookupHopsSig:mean 	24
scalar Network.dyn_peer[229] 	lookupTimeSig:mean 	2.6461538461538
scalar Network.dyn_peer[229] 	lookupStabilitySig:mean 	0.95072599577431
scalar Network.dyn_peer[229] 	lookupHopsSig:mean 	25.538461538462
scalar Network.dyn_peer[230] 	lookupTimeSig:mean 	2.0071428571429
scalar Network.dyn_peer[230] 	lookupStabilitySig:mean 	0.95265267107503
scalar Network.dyn_peer[230] 	lookupHopsSig:mean 	19.142857142857
scalar Network.dyn_peer[231] 	lookupTimeSig:mean 	1.575
scalar Network.dyn_peer[231] 	lookupStabilitySig:mean 	0.94447050243616
scalar Network.dyn_peer[231] 	lookupHopsSig:mean 	15
scalar Network.dyn_peer[232] 	lookupTimeSig:mean 	2.33125
scalar Network.dyn_peer[232] 	lookupStabilitySig:mean 	0.96303565637209
scalar Network.dyn_peer[232] 	lookupHopsSig:mean 	22.375
scalar Network.dyn_peer[233] 	lookupTimeSig:mean 	1.7
scalar Network.dyn_peer[233] 	lookupStabilitySig:mean 	0.95464967767923
scalar Network.dyn_peer[233] 	lookupHopsSig:mean 	16.076923076923
scalar Network.dyn_peer[234] 	lookupTimeSig:mean 	2.5833333333333
scalar Network.dyn_peer[234] 	lookupStabilitySig:mean 	0.92082819963495
scalar Network.dyn_peer[234] 	lookupHopsSig:mean 	25
scalar Network.dyn_peer[235] 	lookupTimeSig:mean 	2.9
scalar Network.dyn_peer[235] 	lookupStabilitySig:mean 	0.94518278606913
scalar Network.dyn_peer[235] 	lookupHopsSig:mean 	28.090909090909
scalar Network.dyn_peer[236] 	lookupTimeSig:mean 	2.1
scalar Network.dyn_peer[236] 	lookupStabilitySig:mean 	0.94153055129573
scalar Network.dyn_peer[236] 	lookupHopsSig:mean 	20.1
scalar Network.dyn_peer[237] 	lookupTimeSig:mean 	2.25
scalar Network.dyn_peer[237] 	lookupStabilitySig:mean 	0.95620625269865
scalar Network.dyn_peer[237] 	lookupHopsSig:mean 	21.571428571429
scalar Network.dyn_peer[238] 	lookupTimeSig:mean 	2.2666666666667
scalar Network.dyn_peer[238] 	lookupStabilitySig:mean 	0.9679693893316
scalar Network.dyn_peer[238] 	lookupHopsSig:mean 	21.708333333333
scalar Network.dyn_peer[239] 	lookupTimeSig:mean 	2.5652173913043
scalar Network.dyn_peer[239] 	lookupStabilitySig:mean 	0.97381062805653
scalar Network.dyn_peer[239] 	lookupHopsSig:mean 	24.695652173913
scalar Network.dyn_peer[240] 	lookupTimeSig:mean 	2.15
scalar Network.dyn_peer[240] 	lookupStabilitySig:mean 	0.96039148289452
scalar Network.dyn_peer[240] 	lookupHopsSig:mean 	20.555555555556
scalar Network.dyn_peer[241] 	lookupTimeSig:mean 	2.9666666666667
scalar Network.dyn_peer[241] 	lookupStabilitySig:mean 	0.94718597247265
scalar Network.dyn_peer[241] 	lookupHopsSig:mean 	28.75
scalar Network.dyn_peer[242] 	lookupTimeSig:mean 	2.3066666666667
scalar Network.dyn_peer[242] 	lookupStabilitySig:mean 	0.96157067473202
scalar Network.dyn_peer[242] 	lookupHopsSig:mean 	22.133333333333
scalar Network.dyn_peer[243] 	lookupTimeSig:mean 	2.8909090909091
scalar Network.dyn_peer[243] 	lookupStabilitySig:mean 	0.95725133515556
scalar Network.dyn_peer[243] 	lookupHopsSig:mean 	28
scalar Network.dyn_peer[244] 	lookupTimeSig:mean 	2.1142857142857
scalar Network.dyn_peer[244] 	lookupStabilitySig:mean 	0.95732526053741
scalar Network.dyn_peer[244] 	lookupHopsSig:mean 	20.214285714286
scalar Network.dyn_peer[245] 	lookupTimeSig:mean 	1.9785714285714
scalar Network.dyn_peer[245] 	lookupStabilitySig:mean 	0.96568395149162
scalar Network.dyn_peer[245] 	lookupHopsSig:mean 	18.857142857143
scalar Network.dyn_peer[246] 	lookupTimeSig:mean 	2.475
scalar Network.dyn_peer[246] 	lookupStabilitySig:mean 	0.95965069338369
scalar Network.dyn_peer[246] 	lookupHopsSig:mean 	23.833333333333
scalar Network.dyn_peer[247] 	lookupTimeSig:mean 	1.9666666666667
scalar Network.dyn_peer[247] 	lookupStabilitySig:mean 	0.94585573973341
scalar Network.dyn_peer[247] 	lookupHopsSig:mean 	18.777777777778
scalar Network.dyn_peer[248] 	lookupTimeSig:mean 	2.8555555555556
scalar Network.dyn_peer[248] 	lookupStabilitySig:mean 	0.96220091285391
scalar Network.dyn_peer[248] 	lookupHopsSig:mean 	27.611111111111
scalar Network.dyn_peer[249] 	lookupTimeSig:mean 	2.6368421052632
scalar Network.dyn_peer[249] 	lookupStabilitySig:mean 	0.96935132301511
scalar Network.dyn_peer[249] 	lookupHopsSig:mean 	25.421052631579
scalar Network.dyn_peer[250] 	lookupTimeSig:mean 	3.11
scalar Network.dyn_peer[250] 	lookupStabilitySig:mean 	0.94519307063892
scalar Network.dyn_peer[250] 	lookupHopsSig:mean 	30.2
scalar Network.dyn_peer[251] 	lookupTimeSig:mean 	3.11
scalar Network.dyn_peer[251] 	lookupStabilitySig:mean 	0.94835395459086
scalar Network.dyn_peer[251] 	lookupHopsSig:mean 	30.2
scalar Network.dyn_peer[252] 	lookupTimeSig:mean 	2.4555555555556
scalar Network.dyn_peer[252] 	lookupStabilitySig:mean 	0.93851155291001
scalar Network.dyn_peer[252] 	lookupHopsSig:mean 	23.666666666667
scalar Network.dyn_peer[253] 	lookupTimeSig:mean 	2.1642857142857
scalar Network.dyn_peer[253] 	lookupStabilitySig:mean 	0.96080651872658
scalar Network.dyn_peer[253] 	lookupHopsSig:mean 	20.714285714286
scalar Network.dyn_peer[254] 	lookupTimeSig:mean 	3.0444444444444
scalar Network.dyn_peer[254] 	lookupStabilitySig:mean 	0.95438215995414
scalar Network.dyn_peer[254] 	lookupHopsSig:mean 	29.555555555556
scalar Network.dyn_peer[255] 	lookupTimeSig:mean 	2.24
scalar Network.dyn_peer[255] 	lookupStabilitySig:mean 	0.94023645054549
scalar Network.dyn_peer[255] 	lookupHopsSig:mean 	21.5
scalar Network.dyn_peer[256] 	lookupTimeSig:mean 	3.0764705882353
scalar Network.dyn_peer[256] 	lookupStabilitySig:mean 	0.97034122585319
scalar Network.dyn_peer[256] 	lookupHopsSig:mean 	29.823529411765
scalar Network.dyn_peer[257] 	lookupTimeSig:mean 	2.7277777777778
scalar Network.dyn_peer[257] 	lookupStabilitySig:mean 	0.96921472859362
scalar Network.dyn_peer[257] 	lookupHopsSig:mean 	26.333333333333
scalar Network.dyn_peer[258] 	lookupTimeSig:mean 	1.6923076923077
scalar Network.dyn_peer[258] 	lookupStabilitySig:mean 	0.95534519704345
scalar Network.dyn_peer[258] 	lookupHopsSig:mean 	16
scalar Network.dyn_peer[259] 	lookupTimeSig:mean 	3.1533333333333
scalar Network.dyn_peer[259] 	lookupStabilitySig:mean 	0.95509856857049
scalar Network.dyn_peer[259] 	lookupHopsSig:mean 	30.6
scalar Network.dyn_peer[260] 	lookupTimeSig:mean 	2
scalar Network.dyn_peer[260] 	lookupStabilitySig:mean 	0.96035174221421
scalar Network.dyn_peer[260] 	lookupHopsSig:mean 	19.066666666667
scalar Network.dyn_peer[261] 	lookupTimeSig:mean 	1.8055555555556
scalar Network.dyn_peer[261] 	lookupStabilitySig:mean 	0.96476851314461
scalar Network.dyn_peer[261] 	lookupHopsSig:mean 	17.111111111111
scalar Network.dyn_peer[262] 	lookupTimeSig:mean 	3.2615384615385
scalar Network.dyn_peer[262] 	lookupStabilitySig:mean 	0.95375478851537
scalar Network.dyn_peer[262] 	lookupHopsSig:mean 	31.692307692308
scalar Network.dyn_peer[263] 	lookupTimeSig:mean 	2.2875
scalar Network.dyn_peer[263] 	lookupStabilitySig:mean 	0.92858184874058
scalar Network.dyn_peer[263] 	lookupHopsSig:mean 	22
scalar Network.dyn_peer[264] 	lookupTimeSig:mean 	1.7
scalar Network.dyn_peer[264] 	lookupStabilitySig:mean 	0.95839429902844
scalar Network.dyn_peer[264] 	lookupHopsSig:mean 	16.083333333333
scalar Network.dyn_peer[265] 	lookupTimeSig:mean 	1.6533333333333
scalar Network.dyn_peer[265] 	lookupStabilitySig:mean 	0.97127537361036
scalar Network.dyn_peer[265] 	lookupHopsSig:mean 	15.6
scalar Network.dyn_peer[266] 	lookupTimeSig:mean 	1.075
scalar Network.dyn_peer[266] 	lookupStabilitySig:mean 	0.92818854947109
scalar Network.dyn_peer[266] 	lookupHopsSig:mean 	10
scalar Network.dyn_peer[267] 	lookupTimeSig:mean 	2.1214285714286
scalar Network.dyn_peer[267] 	lookupStabilitySig:mean 	0.96681505892359
scalar Network.dyn_peer[267] 	lookupHopsSig:mean 	20.285714285714
scalar Network.dyn_peer[268] 	lookupTimeSig:mean 	1.8733333333333
scalar Network.dyn_peer[268] 	lookupStabilitySig:mean 	0.95857402011752
scalar Network.dyn_peer[268] 	lookupHopsSig:mean 	17.8
scalar Network.dyn_peer[269] 	lookupTimeSig:mean 	2.38125
scalar Network.dyn_peer[269] 	lookupStabilitySig:mean 	0.96923365340263
scalar Network.dyn_peer[269] 	lookupHopsSig:mean 	22.875
scalar Network.dyn_peer[270] 	lookupTimeSig:mean 	1.8375
scalar Network.dyn_peer[270] 	lookupStabilitySig:mean 	0.96873000262713
scalar Network.dyn_peer[270] 	lookupHopsSig:mean 	17.4375
scalar Network.dyn_peer[271] 	lookupTimeSig:mean 	2.4421052631579
scalar Network.dyn_peer[271] 	lookupStabilitySig:mean 	0.9632200094332
scalar Network.dyn_peer[271] 	lookupHopsSig:mean 	23.473684210526
scalar Network.dyn_peer[272] 	lookupTimeSig:mean 	2.4
scalar Network.dyn_peer[272] 	lookupStabilitySig:mean 	0.95129771608238
scalar Network.dyn_peer[272] 	lookupHopsSig:mean 	23.083333333333
scalar Network.dyn_peer[273] 	lookupTimeSig:mean 	3.5571428571429
scalar Network.dyn_peer[273] 	lookupStabilitySig:mean 	0.94138990708494
scalar Network.dyn_peer[273] 	lookupHopsSig:mean 	34.714285714286
scalar Network.dyn_peer[274] 	lookupTimeSig:mean 	3.8071428571429
scalar Network.dyn_peer[274] 	lookupStabilitySig:mean 	0.94878857226909
scalar Network.dyn_peer[274] 	lookupHopsSig:mean 	37.142857142857
scalar Network.dyn_peer[275] 	lookupTimeSig:mean 	3.8066666666667
scalar Network.dyn_peer[275] 	lookupStabilitySig:mean 	0.95419789599255
scalar Network.dyn_peer[275] 	lookupHopsSig:mean 	37.133333333333
scalar Network.dyn_peer[276] 	lookupTimeSig:mean 	2.045
scalar Network.dyn_peer[276] 	lookupStabilitySig:mean 	0.96741089650895
scalar Network.dyn_peer[276] 	lookupHopsSig:mean 	19.5
scalar Network.dyn_peer[277] 	lookupTimeSig:mean 	2.5181818181818
scalar Network.dyn_peer[277] 	lookupStabilitySig:mean 	0.94513115375726
scalar Network.dyn_peer[277] 	lookupHopsSig:mean 	24.272727272727
scalar Network.dyn_peer[278] 	lookupTimeSig:mean 	2.8666666666667
scalar Network.dyn_peer[278] 	lookupStabilitySig:mean 	0.95715610335271
scalar Network.dyn_peer[278] 	lookupHopsSig:mean 	27.733333333333
scalar Network.dyn_peer[279] 	lookupTimeSig:mean 	3.4222222222222
scalar Network.dyn_peer[279] 	lookupStabilitySig:mean 	0.94074350388514
scalar Network.dyn_peer[279] 	lookupHopsSig:mean 	33.333333333333
scalar Network.dyn_peer[280] 	lookupTimeSig:mean 	2.7888888888889
scalar Network.dyn_peer[280] 	lookupStabilitySig:mean 	0.9467167142106
scalar Network.dyn_peer[280] 	lookupHopsSig:mean 	27
scalar Network.dyn_peer[281] 	lookupTimeSig:mean 	1.825
scalar Network.dyn_peer[281] 	lookupStabilitySig:mean 	0.96065615990665
scalar Network.dyn_peer[281] 	lookupHopsSig:mean 	17.3125
scalar Network.dyn_peer[282] 	lookupTimeSig:mean 	2.0888888888889
scalar Network.dyn_peer[282] 	lookupStabilitySig:mean 	0.95233264958693
scalar Network.dyn_peer[282] 	lookupHopsSig:mean 	20
scalar Network.dyn_peer[283] 	lookupTimeSig:mean 	3.0933333333333
scalar Network.dyn_peer[283] 	lookupStabilitySig:mean 	0.96225213088716
scalar Network.dyn_peer[283] 	lookupHopsSig:mean 	30
scalar Network.dyn_peer[284] 	lookupTimeSig:mean 	3.46875
scalar Network.dyn_peer[284] 	lookupStabilitySig:mean 	0.96003808898968
scalar Network.dyn_peer[284] 	lookupHopsSig:mean 	33.75
scalar Network.dyn_peer[285] 	lookupTimeSig:mean 	3.0352941176471
scalar Network.dyn_peer[285] 	lookupStabilitySig:mean 	0.96249941202319
scalar Network.dyn_peer[285] 	lookupHopsSig:mean 	29.411764705882
scalar Network.dyn_peer[286] 	lookupTimeSig:mean 	2.4375
scalar Network.dyn_peer[286] 	lookupStabilitySig:mean 	0.94115399720613
scalar Network.dyn_peer[286] 	lookupHopsSig:mean 	23.5
scalar Network.dyn_peer[287] 	lookupTimeSig:mean 	2.6
scalar Network.dyn_peer[287] 	lookupStabilitySig:mean 	0.95784475002438
scalar Network.dyn_peer[287] 	lookupHopsSig:mean 	25.076923076923
scalar Network.dyn_peer[288] 	lookupTimeSig:mean 	1.9857142857143
scalar Network.dyn_peer[288] 	lookupStabilitySig:mean 	0.96086644496037
scalar Network.dyn_peer[288] 	lookupHopsSig:mean 	18.928571428571
scalar Network.dyn_peer[289] 	lookupTimeSig:mean 	2.6357142857143
scalar Network.dyn_peer[289] 	lookupStabilitySig:mean 	0.95571136887052
scalar Network.dyn_peer[289] 	lookupHopsSig:mean 	25.428571428571
scalar Network.dyn_peer[290] 	lookupTimeSig:mean 	2.3727272727273
scalar Network.dyn_peer[290] 	lookupStabilitySig:mean 	0.9634174506434
scalar Network.dyn_peer[290] 	lookupHopsSig:mean 	22.818181818182
scalar Network.dyn_peer[291] 	lookupTimeSig:mean 	1.9857142857143
scalar Network.dyn_peer[291] 	lookupStabilitySig:mean 	0.95735659796212
scalar Network.dyn_peer[291] 	lookupHopsSig:mean 	18.928571428571
scalar Network.dyn_peer[292] 	lookupTimeSig:mean 	2.97
scalar Network.dyn_peer[292] 	lookupStabilitySig:mean 	0.94711197400466
scalar Network.dyn_peer[292] 	lookupHopsSig:mean 	28.8
scalar Network.dyn_peer[293] 	lookupTimeSig:mean 	2.3307692307692
scalar Network.dyn_peer[293] 	lookupStabilitySig:mean 	0.95909268294389
scalar Network.dyn_peer[293] 	lookupHopsSig:mean 	22.384615384615
scalar Network.dyn_peer[294] 	lookupTimeSig:mean 	2.4764705882353
scalar Network.dyn_peer[294] 	lookupStabilitySig:mean 	0.96136633416309
scalar Network.dyn_peer[294] 	lookupHopsSig:mean 	23.823529411765
scalar Network.dyn_peer[295] 	lookupTimeSig:mean 	1.9454545454545
scalar Network.dyn_peer[295] 	lookupStabilitySig:mean 	0.95419407288798
scalar Network.dyn_peer[295] 	lookupHopsSig:mean 	18.545454545455
scalar Network.dyn_peer[296] 	lookupTimeSig:mean 	2.18
scalar Network.dyn_peer[296] 	lookupStabilitySig:mean 	0.96197790787555
scalar Network.dyn_peer[296] 	lookupHopsSig:mean 	20.9
scalar Network.dyn_peer[297] 	lookupTimeSig:mean 	2.57
scalar Network.dyn_peer[297] 	lookupStabilitySig:mean 	0.94775421330705
scalar Network.dyn_peer[297] 	lookupHopsSig:mean 	24.8
scalar Network.dyn_peer[298] 	lookupTimeSig:mean 	3.0222222222222
scalar Network.dyn_peer[298] 	lookupStabilitySig:mean 	0.9570692182622
scalar Network.dyn_peer[298] 	lookupHopsSig:mean 	29.333333333333
scalar Network.dyn_peer[299] 	lookupTimeSig:mean 	1.9823529411765
scalar Network.dyn_peer[299] 	lookupStabilitySig:mean 	0.96560952141333
scalar Network.dyn_peer[299] 	lookupHopsSig:mean 	18.882352941176
scalar Network.dyn_peer[300] 	lookupTimeSig:mean 	2.8285714285714
scalar Network.dyn_peer[300] 	lookupStabilitySig:mean 	0.95850491397349
scalar Network.dyn_peer[300] 	lookupHopsSig:mean 	27.357142857143
scalar Network.dyn_peer[301] 	lookupTimeSig:mean 	2.1333333333333
scalar Network.dyn_peer[301] 	lookupStabilitySig:mean 	0.9515124692892
scalar Network.dyn_peer[301] 	lookupHopsSig:mean 	20.444444444444
scalar Network.dyn_peer[302] 	lookupTimeSig:mean 	3.65
scalar Network.dyn_peer[302] 	lookupStabilitySig:mean 	0.93594290706096
scalar Network.dyn_peer[302] 	lookupHopsSig:mean 	35.625
scalar Network.dyn_peer[303] 	lookupTimeSig:mean 	3.07
scalar Network.dyn_peer[303] 	lookupStabilitySig:mean 	0.9534637192497
scalar Network.dyn_peer[303] 	lookupHopsSig:mean 	29.8
scalar Network.dyn_peer[304] 	lookupTimeSig:mean 	1.2666666666667
scalar Network.dyn_peer[304] 	lookupStabilitySig:mean 	0.95774578667867
scalar Network.dyn_peer[304] 	lookupHopsSig:mean 	11.777777777778
scalar Network.dyn_peer[305] 	lookupTimeSig:mean 	2.4833333333333
scalar Network.dyn_peer[305] 	lookupStabilitySig:mean 	0.95650762699855
scalar Network.dyn_peer[305] 	lookupHopsSig:mean 	23.916666666667
scalar Network.dyn_peer[306] 	lookupTimeSig:mean 	2.4166666666667
scalar Network.dyn_peer[306] 	lookupStabilitySig:mean 	0.9622516798748
scalar Network.dyn_peer[306] 	lookupHopsSig:mean 	23.25
scalar Network.dyn_peer[307] 	lookupTimeSig:mean 	2.5117647058824
scalar Network.dyn_peer[307] 	lookupStabilitySig:mean 	0.9618323989596
scalar Network.dyn_peer[307] 	lookupHopsSig:mean 	24.176470588235
scalar Network.dyn_peer[308] 	lookupTimeSig:mean 	1.6625
scalar Network.dyn_peer[308] 	lookupStabilitySig:mean 	0.94207026832737
scalar Network.dyn_peer[308] 	lookupHopsSig:mean 	15.75
scalar Network.dyn_peer[309] 	lookupTimeSig:mean 	2.3
scalar Network.dyn_peer[309] 	lookupStabilitySig:mean 	0.93351805880666
scalar Network.dyn_peer[309] 	lookupHopsSig:mean 	22.2
scalar Network.dyn_peer[310] 	lookupTimeSig:mean 	2.3941176470588
scalar Network.dyn_peer[310] 	lookupStabilitySig:mean 	0.96947309811709
scalar Network.dyn_peer[310] 	lookupHopsSig:mean 	23
scalar Network.dyn_peer[311] 	lookupTimeSig:mean 	2.2055555555556
scalar Network.dyn_peer[311] 	lookupStabilitySig:mean 	0.96902434201911
scalar Network.dyn_peer[311] 	lookupHopsSig:mean 	21.111111111111
scalar Network.dyn_peer[312] 	lookupTimeSig:mean 	1.1
scalar Network.dyn_peer[312] 	lookupStabilitySig:mean 	0.94026300311089
scalar Network.dyn_peer[312] 	lookupHopsSig:mean 	10.2
scalar Network.dyn_peer[313] 	lookupTimeSig:mean 	1.925
scalar Network.dyn_peer[313] 	lookupStabilitySig:mean 	0.95824775538252
scalar Network.dyn_peer[313] 	lookupHopsSig:mean 	18.333333333333
scalar Network.dyn_peer[314] 	lookupTimeSig:mean 	1.8333333333333
scalar Network.dyn_peer[314] 	lookupStabilitySig:mean 	0.93932923395187
scalar Network.dyn_peer[314] 	lookupHopsSig:mean 	17.5
scalar Network.dyn_peer[315] 	lookupTimeSig:mean 	2.5
scalar Network.dyn_peer[315] 	lookupStabilitySig:mean 	0.96367795324574
scalar Network.dyn_peer[315] 	lookupHopsSig:mean 	24.066666666667
scalar Network.dyn_peer[316] 	lookupTimeSig:mean 	3.16
scalar Network.dyn_peer[316] 	lookupStabilitySig:mean 	0.91543444506824
scalar Network.dyn_peer[316] 	lookupHopsSig:mean 	30.8
scalar Network.dyn_peer[317] 	lookupTimeSig:mean 	2.03
scalar Network.dyn_peer[317] 	lookupStabilitySig:mean 	0.9671574841952
scalar Network.dyn_peer[317] 	lookupHopsSig:mean 	19.35
scalar Network.dyn_peer[318] 	lookupTimeSig:mean 	1.6444444444444
scalar Network.dyn_peer[318] 	lookupStabilitySig:mean 	0.96349538303912
scalar Network.dyn_peer[318] 	lookupHopsSig:mean 	15.555555555556
scalar Network.dyn_peer[319] 	lookupTimeSig:mean 	2.6923076923077
scalar Network.dyn_peer[319] 	lookupStabilitySig:mean 	0.96174888828626
scalar Network.dyn_peer[319] 	lookupHopsSig:mean 	26
scalar Network.dyn_peer[320] 	lookupTimeSig:mean 	3.1333333333333
scalar Network.dyn_peer[320] 	lookupStabilitySig:mean 	0.95714271340209
scalar Network.dyn_peer[320] 	lookupHopsSig:mean 	30.416666666667
scalar Network.dyn_peer[321] 	lookupTimeSig:mean 	2.14
scalar Network.dyn_peer[321] 	lookupStabilitySig:mean 	0.93511615488678
scalar Network.dyn_peer[321] 	lookupHopsSig:mean 	20.6
scalar Network.dyn_peer[322] 	lookupTimeSig:mean 	3.6
scalar Network.dyn_peer[322] 	lookupStabilitySig:mean 	0.9424344827421
scalar Network.dyn_peer[322] 	lookupHopsSig:mean 	35.125
scalar Network.dyn_peer[323] 	lookupTimeSig:mean 	1.7
scalar Network.dyn_peer[323] 	lookupStabilitySig:mean 	0.9629446409392
scalar Network.dyn_peer[323] 	lookupHopsSig:mean 	16.076923076923
scalar Network.dyn_peer[324] 	lookupTimeSig:mean 	1.5
scalar Network.dyn_peer[324] 	lookupStabilitySig:mean 	0.93468138612807
scalar Network.dyn_peer[324] 	lookupHopsSig:mean 	14.2
scalar Network.dyn_peer[325] 	lookupTimeSig:mean 	1.54
scalar Network.dyn_peer[325] 	lookupStabilitySig:mean 	0.95291498396546
scalar Network.dyn_peer[325] 	lookupHopsSig:mean 	14.6
scalar Network.dyn_peer[326] 	lookupTimeSig:mean 	2.20625
scalar Network.dyn_peer[326] 	lookupStabilitySig:mean 	0.97165594791295
scalar Network.dyn_peer[326] 	lookupHopsSig:mean 	21.125
scalar Network.dyn_peer[327] 	lookupTimeSig:mean 	2.7384615384615
scalar Network.dyn_peer[327] 	lookupStabilitySig:mean 	0.95687186925744
scalar Network.dyn_peer[327] 	lookupHopsSig:mean 	26.461538461538
scalar Network.dyn_peer[328] 	lookupTimeSig:mean 	1.6444444444444
scalar Network.dyn_peer[328] 	lookupStabilitySig:mean 	0.95185027628516
scalar Network.dyn_peer[328] 	lookupHopsSig:mean 	15.555555555556
scalar Network.dyn_peer[329] 	lookupTimeSig:mean 	3.05
scalar Network.dyn_peer[329] 	lookupStabilitySig:mean 	0.94416310591623
scalar Network.dyn_peer[329] 	lookupHopsSig:mean 	29.625
scalar Network.dyn_peer[330] 	lookupTimeSig:mean 	2.5111111111111
scalar Network.dyn_peer[330] 	lookupStabilitySig:mean 	0.97223499060298
scalar Network.dyn_peer[330] 	lookupHopsSig:mean 	24.166666666667
scalar Network.dyn_peer[331] 	lookupTimeSig:mean 	2.36
scalar Network.dyn_peer[331] 	lookupStabilitySig:mean 	0.9495871915482
scalar Network.dyn_peer[331] 	lookupHopsSig:mean 	22.7
scalar Network.dyn_peer[332] 	lookupTimeSig:mean 	2.1666666666667
scalar Network.dyn_peer[332] 	lookupStabilitySig:mean 	0.96548139903074
scalar Network.dyn_peer[332] 	lookupHopsSig:mean 	20.733333333333
scalar Network.dyn_peer[333] 	lookupTimeSig:mean 	3.625
scalar Network.dyn_peer[333] 	lookupStabilitySig:mean 	0.94027906446718
scalar Network.dyn_peer[333] 	lookupHopsSig:mean 	35.375
scalar Network.dyn_peer[334] 	lookupTimeSig:mean 	2.5125
scalar Network.dyn_peer[334] 	lookupStabilitySig:mean 	0.96773663263593
scalar Network.dyn_peer[334] 	lookupHopsSig:mean 	24.1875
scalar Network.dyn_peer[335] 	lookupTimeSig:mean 	1.7181818181818
scalar Network.dyn_peer[335] 	lookupStabilitySig:mean 	0.96554974494079
scalar Network.dyn_peer[335] 	lookupHopsSig:mean 	16.272727272727
scalar Network.dyn_peer[336] 	lookupTimeSig:mean 	2.6764705882353
scalar Network.dyn_peer[336] 	lookupStabilitySig:mean 	0.96538375498837
scalar Network.dyn_peer[336] 	lookupHopsSig:mean 	25.823529411765
scalar Network.dyn_peer[337] 	lookupTimeSig:mean 	2.1789473684211
scalar Network.dyn_peer[337] 	lookupStabilitySig:mean 	0.97064814658983
scalar Network.dyn_peer[337] 	lookupHopsSig:mean 	20.842105263158
scalar Network.dyn_peer[338] 	lookupTimeSig:mean 	2.4
scalar Network.dyn_peer[338] 	lookupStabilitySig:mean 	0.9549107269384
scalar Network.dyn_peer[338] 	lookupHopsSig:mean 	23.1
scalar Network.dyn_peer[339] 	lookupTimeSig:mean 	1.1444444444444
scalar Network.dyn_peer[339] 	lookupStabilitySig:mean 	0.97575453035663
scalar Network.dyn_peer[339] 	lookupHopsSig:mean 	10.555555555556
scalar Network.dyn_peer[340] 	lookupTimeSig:mean 	2.3571428571429
scalar Network.dyn_peer[340] 	lookupStabilitySig:mean 	0.96645242507969
scalar Network.dyn_peer[340] 	lookupHopsSig:mean 	22.714285714286
scalar Network.dyn_peer[341] 	lookupTimeSig:mean 	2.4105263157895
scalar Network.dyn_peer[341] 	lookupStabilitySig:mean 	0.96989716868848
scalar Network.dyn_peer[341] 	lookupHopsSig:mean 	23.157894736842
scalar Network.dyn_peer[342] 	lookupTimeSig:mean 	1.5111111111111
scalar Network.dyn_peer[342] 	lookupStabilitySig:mean 	0.9764017723242
scalar Network.dyn_peer[342] 	lookupHopsSig:mean 	14.222222222222
scalar Network.dyn_peer[343] 	lookupTimeSig:mean 	2.7
scalar Network.dyn_peer[343] 	lookupStabilitySig:mean 	0.94217664810518
scalar Network.dyn_peer[343] 	lookupHopsSig:mean 	26.166666666667
scalar Network.dyn_peer[344] 	lookupTimeSig:mean 	3.8125
scalar Network.dyn_peer[344] 	lookupStabilitySig:mean 	0.93438956188038
scalar Network.dyn_peer[344] 	lookupHopsSig:mean 	37.25
scalar Network.dyn_peer[345] 	lookupTimeSig:mean 	2.3863636363636
scalar Network.dyn_peer[345] 	lookupStabilitySig:mean 	0.9789078712929
scalar Network.dyn_peer[345] 	lookupHopsSig:mean 	22.909090909091
scalar Network.dyn_peer[346] 	lookupTimeSig:mean 	1.3444444444444
scalar Network.dyn_peer[346] 	lookupStabilitySig:mean 	0.96703102568992
scalar Network.dyn_peer[346] 	lookupHopsSig:mean 	12.555555555556
scalar Network.dyn_peer[347] 	lookupTimeSig:mean 	2.1214285714286
scalar Network.dyn_peer[347] 	lookupStabilitySig:mean 	0.96378423503899
scalar Network.dyn_peer[347] 	lookupHopsSig:mean 	20.285714285714
scalar Network.dyn_peer[348] 	lookupTimeSig:mean 	3.5090909090909
scalar Network.dyn_peer[348] 	lookupStabilitySig:mean 	0.95974518612704
scalar Network.dyn_peer[348] 	lookupHopsSig:mean 	34.181818181818
scalar Network.dyn_peer[349] 	lookupTimeSig:mean 	1.6944444444444
scalar Network.dyn_peer[349] 	lookupStabilitySig:mean 	0.97157260810491
scalar Network.dyn_peer[349] 	lookupHopsSig:mean 	16
scalar Network.dyn_peer[350] 	lookupTimeSig:mean 	2.26875
scalar Network.dyn_peer[350] 	lookupStabilitySig:mean 	0.96665491104795
scalar Network.dyn_peer[350] 	lookupHopsSig:mean 	21.75
scalar Network.dyn_peer[351] 	lookupTimeSig:mean 	2.6
scalar Network.dyn_peer[351] 	lookupStabilitySig:mean 	0.96888926040992
scalar Network.dyn_peer[351] 	lookupHopsSig:mean 	25.0625
scalar Network.dyn_peer[352] 	lookupTimeSig:mean 	2.6117647058824
scalar Network.dyn_peer[352] 	lookupStabilitySig:mean 	0.96660364808186
scalar Network.dyn_peer[352] 	lookupHopsSig:mean 	25.176470588235
scalar Network.dyn_peer[353] 	lookupTimeSig:mean 	1.575
scalar Network.dyn_peer[353] 	lookupStabilitySig:mean 	0.95359832147369
scalar Network.dyn_peer[353] 	lookupHopsSig:mean 	14.875
scalar Network.dyn_peer[354] 	lookupTimeSig:mean 	2.4785714285714
scalar Network.dyn_peer[354] 	lookupStabilitySig:mean 	0.9629184548477
scalar Network.dyn_peer[354] 	lookupHopsSig:mean 	23.857142857143
scalar Network.dyn_peer[355] 	lookupTimeSig:mean 	1.8142857142857
scalar Network.dyn_peer[355] 	lookupStabilitySig:mean 	0.97014184382611
scalar Network.dyn_peer[355] 	lookupHopsSig:mean 	17.214285714286
scalar Network.dyn_peer[356] 	lookupTimeSig:mean 	1.66
scalar Network.dyn_peer[356] 	lookupStabilitySig:mean 	0.95650769583881
scalar Network.dyn_peer[356] 	lookupHopsSig:mean 	15.7
scalar Network.dyn_peer[357] 	lookupTimeSig:mean 	2.2777777777778
scalar Network.dyn_peer[357] 	lookupStabilitySig:mean 	0.97016791355175
scalar Network.dyn_peer[357] 	lookupHopsSig:mean 	21.888888888889
scalar Network.dyn_peer[358] 	lookupTimeSig:mean 	2.7666666666667
scalar Network.dyn_peer[358] 	lookupStabilitySig:mean 	0.95927193615999
scalar Network.dyn_peer[358] 	lookupHopsSig:mean 	26.777777777778
scalar Network.dyn_peer[359] 	lookupTimeSig:mean 	3.3375
scalar Network.dyn_peer[359] 	lookupStabilitySig:mean 	0.95185786159709
scalar Network.dyn_peer[359] 	lookupHopsSig:mean 	32.5
scalar Network.dyn_peer[360] 	lookupTimeSig:mean 	3.22
scalar Network.dyn_peer[360] 	lookupStabilitySig:mean 	0.91673662588
scalar Network.dyn_peer[360] 	lookupHopsSig:mean 	31.4
scalar Network.dyn_peer[361] 	lookupTimeSig:mean 	1.8818181818182
scalar Network.dyn_peer[361] 	lookupStabilitySig:mean 	0.9636867841367
scalar Network.dyn_peer[361] 	lookupHopsSig:mean 	17.909090909091
scalar Network.dyn_peer[362] 	lookupTimeSig:mean 	2.74
scalar Network.dyn_peer[362] 	lookupStabilitySig:mean 	0.95032768733799
scalar Network.dyn_peer[362] 	lookupHopsSig:mean 	26.5
scalar Network.dyn_peer[363] 	lookupTimeSig:mean 	2.65
scalar Network.dyn_peer[363] 	lookupStabilitySig:mean 	0.96934112196323
scalar Network.dyn_peer[363] 	lookupHopsSig:mean 	25.5625
scalar Network.dyn_peer[364] 	lookupTimeSig:mean 	2.4083333333333
scalar Network.dyn_peer[364] 	lookupStabilitySig:mean 	0.95941467160204
scalar Network.dyn_peer[364] 	lookupHopsSig:mean 	23.166666666667
scalar Network.dyn_peer[365] 	lookupTimeSig:mean 	2.9125
scalar Network.dyn_peer[365] 	lookupStabilitySig:mean 	0.95418149908073
scalar Network.dyn_peer[365] 	lookupHopsSig:mean 	28.25
scalar Network.dyn_peer[366] 	lookupTimeSig:mean 	1.25
scalar Network.dyn_peer[366] 	lookupStabilitySig:mean 	0.94715591799468
scalar Network.dyn_peer[366] 	lookupHopsSig:mean 	11.75
scalar Network.dyn_peer[367] 	lookupTimeSig:mean 	2.8
scalar Network.dyn_peer[367] 	lookupStabilitySig:mean 	0.93603191112301
scalar Network.dyn_peer[367] 	lookupHopsSig:mean 	27.142857142857
scalar Network.dyn_peer[368] 	lookupTimeSig:mean 	2.74
scalar Network.dyn_peer[368] 	lookupStabilitySig:mean 	0.95448409374803
scalar Network.dyn_peer[368] 	lookupHopsSig:mean 	26.5
scalar Network.dyn_peer[369] 	lookupTimeSig:mean 	3.44
scalar Network.dyn_peer[369] 	lookupStabilitySig:mean 	0.95124204065651
scalar Network.dyn_peer[369] 	lookupHopsSig:mean 	33.5
scalar Network.dyn_peer[370] 	lookupTimeSig:mean 	2.6545454545455
scalar Network.dyn_peer[370] 	lookupStabilitySig:mean 	0.96306447926062
scalar Network.dyn_peer[370] 	lookupHopsSig:mean 	25.636363636364
scalar Network.dyn_peer[371] 	lookupTimeSig:mean 	2.3
scalar Network.dyn_peer[371] 	lookupStabilitySig:mean 	0.97423865805779
scalar Network.dyn_peer[371] 	lookupHopsSig:mean 	22.047619047619
scalar Network.dyn_peer[372] 	lookupTimeSig:mean 	1.675
scalar Network.dyn_peer[372] 	lookupStabilitySig:mean 	0.93583796406165
scalar Network.dyn_peer[372] 	lookupHopsSig:mean 	16
scalar Network.dyn_peer[373] 	lookupTimeSig:mean 	1.8
scalar Network.dyn_peer[373] 	lookupStabilitySig:mean 	0.96990007614451
scalar Network.dyn_peer[373] 	lookupHopsSig:mean 	17.142857142857
scalar Network.dyn_peer[374] 	lookupTimeSig:mean 	2.2428571428571
scalar Network.dyn_peer[374] 	lookupStabilitySig:mean 	0.97093187801407
scalar Network.dyn_peer[374] 	lookupHopsSig:mean 	21.5
scalar Network.dyn_peer[375] 	lookupTimeSig:mean 	2.3
scalar Network.dyn_peer[375] 	lookupStabilitySig:mean 	0.96361379905803
scalar Network.dyn_peer[375] 	lookupHopsSig:mean 	22.071428571429
scalar Network.dyn_peer[376] 	lookupTimeSig:mean 	1.79
scalar Network.dyn_peer[376] 	lookupStabilitySig:mean 	0.95838683899492
scalar Network.dyn_peer[376] 	lookupHopsSig:mean 	17
scalar Network.dyn_peer[377] 	lookupTimeSig:mean 	3.0333333333333
scalar Network.dyn_peer[377] 	lookupStabilitySig:mean 	0.95610847406917
scalar Network.dyn_peer[377] 	lookupHopsSig:mean 	29.444444444444
scalar Network.dyn_peer[378] 	lookupTimeSig:mean 	2.14375
scalar Network.dyn_peer[378] 	lookupStabilitySig:mean 	0.97757783735869
scalar Network.dyn_peer[378] 	lookupHopsSig:mean 	20.5
scalar Network.dyn_peer[379] 	lookupTimeSig:mean 	2.2363636363636
scalar Network.dyn_peer[379] 	lookupStabilitySig:mean 	0.95743680533699
scalar Network.dyn_peer[379] 	lookupHopsSig:mean 	21.454545454545
scalar Network.dyn_peer[380] 	lookupTimeSig:mean 	2.2
scalar Network.dyn_peer[380] 	lookupStabilitySig:mean 	0.95342521264683
scalar Network.dyn_peer[380] 	lookupHopsSig:mean 	21.125
scalar Network.dyn_peer[381] 	lookupTimeSig:mean 	1.27
scalar Network.dyn_peer[381] 	lookupStabilitySig:mean 	0.9701697754208
scalar Network.dyn_peer[381] 	lookupHopsSig:mean 	11.8
scalar Network.dyn_peer[382] 	lookupTimeSig:mean 	1.75
scalar Network.dyn_peer[382] 	lookupStabilitySig:mean 	0.96669995378969
scalar Network.dyn_peer[382] 	lookupHopsSig:mean 	16.571428571429
scalar Network.dyn_peer[383] 	lookupTimeSig:mean 	3.68
scalar Network.dyn_peer[383] 	lookupStabilitySig:mean 	0.95305382735096
scalar Network.dyn_peer[383] 	lookupHopsSig:mean 	35.9
scalar Network.dyn_peer[384] 	lookupTimeSig:mean 	1.9615384615385
scalar Network.dyn_peer[384] 	lookupStabilitySig:mean 	0.97100386335156
scalar Network.dyn_peer[384] 	lookupHopsSig:mean 	18.692307692308
scalar Network.dyn_peer[385] 	lookupTimeSig:mean 	3.2444444444444
scalar Network.dyn_peer[385] 	lookupStabilitySig:mean 	0.95618133474555
scalar Network.dyn_peer[385] 	lookupHopsSig:mean 	31.555555555556
scalar Network.dyn_peer[386] 	lookupTimeSig:mean 	3.0529411764706
scalar Network.dyn_peer[386] 	lookupStabilitySig:mean 	0.97061053825104
scalar Network.dyn_peer[386] 	lookupHopsSig:mean 	29.588235294118
scalar Network.dyn_peer[387] 	lookupTimeSig:mean 	2.9375
scalar Network.dyn_peer[387] 	lookupStabilitySig:mean 	0.96918592294969
scalar Network.dyn_peer[387] 	lookupHopsSig:mean 	28.4375
scalar Network.dyn_peer[388] 	lookupTimeSig:mean 	3.4142857142857
scalar Network.dyn_peer[388] 	lookupStabilitySig:mean 	0.9564036323822
scalar Network.dyn_peer[388] 	lookupHopsSig:mean 	33.285714285714
scalar Network.dyn_peer[389] 	lookupTimeSig:mean 	2.7461538461538
scalar Network.dyn_peer[389] 	lookupStabilitySig:mean 	0.96573273325339
scalar Network.dyn_peer[389] 	lookupHopsSig:mean 	26.538461538462
scalar Network.dyn_peer[390] 	lookupTimeSig:mean 	2.3821428571429
scalar Network.dyn_peer[390] 	lookupStabilitySig:mean 	0.97719561898183
scalar Network.dyn_peer[390] 	lookupHopsSig:mean 	22.857142857143
scalar Network.dyn_peer[391] 	lookupTimeSig:mean 	2.0214285714286
scalar Network.dyn_peer[391] 	lookupStabilitySig:mean 	0.96410785718555
scalar Network.dyn_peer[391] 	lookupHopsSig:mean 	19.285714285714
scalar Network.dyn_peer[392] 	lookupTimeSig:mean 	1.89
scalar Network.dyn_peer[392] 	lookupStabilitySig:mean 	0.97421723337611
scalar Network.dyn_peer[392] 	lookupHopsSig:mean 	17.95
scalar Network.dyn_peer[393] 	lookupTimeSig:mean 	2.2136363636364
scalar Network.dyn_peer[393] 	lookupStabilitySig:mean 	0.97341415267014
scalar Network.dyn_peer[393] 	lookupHopsSig:mean 	21.181818181818
scalar Network.dyn_peer[394] 	lookupTimeSig:mean 	3.275
scalar Network.dyn_peer[394] 	lookupStabilitySig:mean 	0.96348404178085
scalar Network.dyn_peer[394] 	lookupHopsSig:mean 	31.833333333333
scalar Network.dyn_peer[395] 	lookupTimeSig:mean 	2.68
scalar Network.dyn_peer[395] 	lookupStabilitySig:mean 	0.95449635265395
scalar Network.dyn_peer[395] 	lookupHopsSig:mean 	25.9
scalar Network.dyn_peer[396] 	lookupTimeSig:mean 	3.5142857142857
scalar Network.dyn_peer[396] 	lookupStabilitySig:mean 	0.9595334702504
scalar Network.dyn_peer[396] 	lookupHopsSig:mean 	34.214285714286
scalar Network.dyn_peer[397] 	lookupTimeSig:mean 	2.7166666666667
scalar Network.dyn_peer[397] 	lookupStabilitySig:mean 	0.96966994943796
scalar Network.dyn_peer[397] 	lookupHopsSig:mean 	26.25
scalar Network.dyn_peer[398] 	lookupTimeSig:mean 	1.6625
scalar Network.dyn_peer[398] 	lookupStabilitySig:mean 	0.97433884564089
scalar Network.dyn_peer[398] 	lookupHopsSig:mean 	15.75
scalar Network.dyn_peer[399] 	lookupTimeSig:mean 	2.6555555555556
scalar Network.dyn_peer[399] 	lookupStabilitySig:mean 	0.95846279213826
scalar Network.dyn_peer[399] 	lookupHopsSig:mean 	25.666666666667
scalar Network.dyn_peer[400] 	lookupTimeSig:mean 	2.2818181818182
scalar Network.dyn_peer[400] 	lookupStabilitySig:mean 	0.96249861617319
scalar Network.dyn_peer[400] 	lookupHopsSig:mean 	21.909090909091
scalar Network.dyn_peer[401] 	lookupTimeSig:mean 	1.9631578947368
scalar Network.dyn_peer[401] 	lookupStabilitySig:mean 	0.97123073404165
scalar Network.dyn_peer[401] 	lookupHopsSig:mean 	18.684210526316
scalar Network.dyn_peer[402] 	lookupTimeSig:mean 	2.6375
scalar Network.dyn_peer[402] 	lookupStabilitySig:mean 	0.94849017984234
scalar Network.dyn_peer[402] 	lookupHopsSig:mean 	25.5
scalar Network.dyn_peer[403] 	lookupTimeSig:mean 	1.9285714285714
scalar Network.dyn_peer[403] 	lookupStabilitySig:mean 	0.9744534342705
scalar Network.dyn_peer[403] 	lookupHopsSig:mean 	18.333333333333
scalar Network.dyn_peer[404] 	lookupTimeSig:mean 	1.8777777777778
scalar Network.dyn_peer[404] 	lookupStabilitySig:mean 	0.95612604067557
scalar Network.dyn_peer[404] 	lookupHopsSig:mean 	17.888888888889
scalar Network.dyn_peer[405] 	lookupTimeSig:mean 	2.7222222222222
scalar Network.dyn_peer[405] 	lookupStabilitySig:mean 	0.96632284836637
scalar Network.dyn_peer[405] 	lookupHopsSig:mean 	26.333333333333
scalar Network.dyn_peer[406] 	lookupTimeSig:mean 	2.685
scalar Network.dyn_peer[406] 	lookupStabilitySig:mean 	0.97857956225052
scalar Network.dyn_peer[406] 	lookupHopsSig:mean 	25.9
scalar Network.dyn_peer[407] 	lookupTimeSig:mean 	2.5157894736842
[...]
scalar Network.dyn_peer[9885] 	lookupTimeSig:mean 	-nan
scalar Network.dyn_peer[9885] 	lookupStabilitySig:mean 	-nan
scalar Network.dyn_peer[9885] 	lookupHopsSig:mean 	-nan
scalar Network.dyn_peer[9886] 	lookupTimeSig:mean 	-nan
scalar Network.dyn_peer[9886] 	lookupStabilitySig:mean 	-nan
scalar Network.dyn_peer[9886] 	lookupHopsSig:mean 	-nan
scalar Network.dyn_peer[9887] 	lookupTimeSig:mean 	-nan
scalar Network.dyn_peer[9887] 	lookupStabilitySig:mean 	-nan
scalar Network.dyn_peer[9887] 	lookupHopsSig:mean 	-nan
scalar Network.dyn_peer[9888] 	lookupTimeSig:mean 	-nan
scalar Network.dyn_peer[9888] 	lookupStabilitySig:mean 	-nan
scalar Network.dyn_peer[9888] 	lookupHopsSig:mean 	-nan
scalar Network.dyn_peer[9889] 	lookupTimeSig:mean 	-nan
scalar Network.dyn_peer[9889] 	lookupStabilitySig:mean 	-nan
scalar Network.dyn_peer[9889] 	lookupHopsSig:mean 	-nan
scalar Network.dyn_peer[9890] 	lookupTimeSig:mean 	-nan
scalar Network.dyn_peer[9890] 	lookupStabilitySig:mean 	-nan
scalar Network.dyn_peer[9890] 	lookupHopsSig:mean 	-nan
scalar Network.dyn_peer[9891] 	lookupTimeSig:mean 	-nan
scalar Network.dyn_peer[9891] 	lookupStabilitySig:mean 	-nan
scalar Network.dyn_peer[9891] 	lookupHopsSig:mean 	-nan
scalar Network.dyn_peer[9892] 	lookupTimeSig:mean 	-nan
scalar Network.dyn_peer[9892] 	lookupStabilitySig:mean 	-nan
scalar Network.dyn_peer[9892] 	lookupHopsSig:mean 	-nan
scalar Network.dyn_peer[9893] 	lookupTimeSig:mean 	-nan
scalar Network.dyn_peer[9893] 	lookupStabilitySig:mean 	-nan
scalar Network.dyn_peer[9893] 	lookupHopsSig:mean 	-nan
scalar Network.dyn_peer[9894] 	lookupTimeSig:mean 	-nan
scalar Network.dyn_peer[9894] 	lookupStabilitySig:mean 	-nan
scalar Network.dyn_peer[9894] 	lookupHopsSig:mean 	-nan
scalar Network.dyn_peer[9895] 	lookupTimeSig:mean 	-nan
scalar Network.dyn_peer[9895] 	lookupStabilitySig:mean 	-nan
scalar Network.dyn_peer[9895] 	lookupHopsSig:mean 	-nan
scalar Network.dyn_peer[9896] 	lookupTimeSig:mean 	-nan
scalar Network.dyn_peer[9896] 	lookupStabilitySig:mean 	-nan
scalar Network.dyn_peer[9896] 	lookupHopsSig:mean 	-nan
scalar Network.dyn_peer[9897] 	lookupTimeSig:mean 	-nan
scalar Network.dyn_peer[9897] 	lookupStabilitySig:mean 	-nan
scalar Network.dyn_peer[9897] 	lookupHopsSig:mean 	-nan
scalar Network.dyn_peer[9898] 	lookupTimeSig:mean 	-nan
scalar Network.dyn_peer[9898] 	lookupStabilitySig:mean 	-nan
scalar Network.dyn_peer[9898] 	lookupHopsSig:mean 	-nan
scalar Network.dyn_peer[9899] 	lookupTimeSig:mean 	-nan
scalar Network.dyn_peer[9899] 	lookupStabilitySig:mean 	-nan
scalar Network.dyn_peer[9899] 	lookupHopsSig:mean 	-nan
scalar Network.dyn_peer[9900] 	lookupTimeSig:mean 	-nan
scalar Network.dyn_peer[9900] 	lookupStabilitySig:mean 	-nan
scalar Network.dyn_peer[9900] 	lookupHopsSig:mean 	-nan
scalar Network.dyn_peer[9901] 	lookupTimeSig:mean 	-nan
scalar Network.dyn_peer[9901] 	lookupStabilitySig:mean 	-nan
scalar Network.dyn_peer[9901] 	lookupHopsSig:mean 	-nan
scalar Network.dyn_peer[9902] 	lookupTimeSig:mean 	-nan
scalar Network.dyn_peer[9902] 	lookupStabilitySig:mean 	-nan
scalar Network.dyn_peer[9902] 	lookupHopsSig:mean 	-nan
scalar Network.dyn_peer[9903] 	lookupTimeSig:mean 	-nan
scalar Network.dyn_peer[9903] 	lookupStabilitySig:mean 	-nan
scalar Network.dyn_peer[9903] 	lookupHopsSig:mean 	-nan
scalar Network.dyn_peer[9904] 	lookupTimeSig:mean 	-nan
scalar Network.dyn_peer[9904] 	lookupStabilitySig:mean 	-nan
scalar Network.dyn_peer[9904] 	lookupHopsSig:mean 	-nan
scalar Network.dyn_peer[9905] 	lookupTimeSig:mean 	-nan
scalar Network.dyn_peer[9905] 	lookupStabilitySig:mean 	-nan
scalar Network.dyn_peer[9905] 	lookupHopsSig:mean 	-nan
scalar Network.dyn_peer[9906] 	lookupTimeSig:mean 	-nan
scalar Network.dyn_peer[9906] 	lookupStabilitySig:mean 	-nan
scalar Network.dyn_peer[9906] 	lookupHopsSig:mean 	-nan
scalar Network.dyn_peer[9907] 	lookupTimeSig:mean 	-nan
scalar Network.dyn_peer[9907] 	lookupStabilitySig:mean 	-nan
scalar Network.dyn_peer[9907] 	lookupHopsSig:mean 	-nan
scalar Network.dyn_peer[9908] 	lookupTimeSig:mean 	-nan
scalar Network.dyn_peer[9908] 	lookupStabilitySig:mean 	-nan
scalar Network.dyn_peer[9908] 	lookupHopsSig:mean 	-nan
scalar Network.dyn_peer[9909] 	lookupTimeSig:mean 	-nan
scalar Network.dyn_peer[9909] 	lookupStabilitySig:mean 	-nan
scalar Network.dyn_peer[9909] 	lookupHopsSig:mean 	-nan
scalar Network.dyn_peer[9910] 	lookupTimeSig:mean 	-nan
scalar Network.dyn_peer[9910] 	lookupStabilitySig:mean 	-nan
scalar Network.dyn_peer[9910] 	lookupHopsSig:mean 	-nan
scalar Network.dyn_peer[9911] 	lookupTimeSig:mean 	-nan
scalar Network.dyn_peer[9911] 	lookupStabilitySig:mean 	-nan
scalar Network.dyn_peer[9911] 	lookupHopsSig:mean 	-nan
scalar Network.dyn_peer[9912] 	lookupTimeSig:mean 	-nan
scalar Network.dyn_peer[9912] 	lookupStabilitySig:mean 	-nan
scalar Network.dyn_peer[9912] 	lookupHopsSig:mean 	-nan
scalar Network.dyn_peer[9913] 	lookupTimeSig:mean 	-nan
scalar Network.dyn_peer[9913] 	lookupStabilitySig:mean 	-nan
scalar Network.dyn_peer[9913] 	lookupHopsSig:mean 	-nan
scalar Network.dyn_peer[9914] 	lookupTimeSig:mean 	-nan
scalar Network.dyn_peer[9914] 	lookupStabilitySig:mean 	-nan
scalar Network.dyn_peer[9914] 	lookupHopsSig:mean 	-nan
scalar Network.dyn_peer[9915] 	lookupTimeSig:mean 	-nan
scalar Network.dyn_peer[9915] 	lookupStabilitySig:mean 	-nan
scalar Network.dyn_peer[9915] 	lookupHopsSig:mean 	-nan
scalar Network.dyn_peer[9916] 	lookupTimeSig:mean 	-nan
scalar Network.dyn_peer[9916] 	lookupStabilitySig:mean 	-nan
scalar Network.dyn_peer[9916] 	lookupHopsSig:mean 	-nan
scalar Network.dyn_peer[9917] 	lookupTimeSig:mean 	-nan
scalar Network.dyn_peer[9917] 	lookupStabilitySig:mean 	-nan
scalar Network.dyn_peer[9917] 	lookupHopsSig:mean 	-nan
scalar Network.dyn_peer[9918] 	lookupTimeSig:mean 	-nan
scalar Network.dyn_peer[9918] 	lookupStabilitySig:mean 	-nan
scalar Network.dyn_peer[9918] 	lookupHopsSig:mean 	-nan
scalar Network.dyn_peer[9919] 	lookupTimeSig:mean 	-nan
scalar Network.dyn_peer[9919] 	lookupStabilitySig:mean 	-nan
scalar Network.dyn_peer[9919] 	lookupHopsSig:mean 	-nan
scalar Network.dyn_peer[9920] 	lookupTimeSig:mean 	-nan
scalar Network.dyn_peer[9920] 	lookupStabilitySig:mean 	-nan
scalar Network.dyn_peer[9920] 	lookupHopsSig:mean 	-nan
scalar Network.dyn_peer[9921] 	lookupTimeSig:mean 	-nan
scalar Network.dyn_peer[9921] 	lookupStabilitySig:mean 	-nan
scalar Network.dyn_peer[9921] 	lookupHopsSig:mean 	-nan
scalar Network.dyn_peer[9922] 	lookupTimeSig:mean 	-nan
scalar Network.dyn_peer[9922] 	lookupStabilitySig:mean 	-nan
scalar Network.dyn_peer[9922] 	lookupHopsSig:mean 	-nan
scalar Network.dyn_peer[9923] 	lookupTimeSig:mean 	-nan
scalar Network.dyn_peer[9923] 	lookupStabilitySig:mean 	-nan
scalar Network.dyn_peer[9923] 	lookupHopsSig:mean 	-nan
scalar Network.dyn_peer[9924] 	lookupTimeSig:mean 	-nan
scalar Network.dyn_peer[9924] 	lookupStabilitySig:mean 	-nan
scalar Network.dyn_peer[9924] 	lookupHopsSig:mean 	-nan
scalar Network.dyn_peer[9925] 	lookupTimeSig:mean 	-nan
scalar Network.dyn_peer[9925] 	lookupStabilitySig:mean 	-nan
scalar Network.dyn_peer[9925] 	lookupHopsSig:mean 	-nan
scalar Network.dyn_peer[9926] 	lookupTimeSig:mean 	-nan
scalar Network.dyn_peer[9926] 	lookupStabilitySig:mean 	-nan
scalar Network.dyn_peer[9926] 	lookupHopsSig:mean 	-nan
scalar Network.dyn_peer[9927] 	lookupTimeSig:mean 	-nan
scalar Network.dyn_peer[9927] 	lookupStabilitySig:mean 	-nan
scalar Network.dyn_peer[9927] 	lookupHopsSig:mean 	-nan
scalar Network.dyn_peer[9928] 	lookupTimeSig:mean 	-nan
scalar Network.dyn_peer[9928] 	lookupStabilitySig:mean 	-nan
scalar Network.dyn_peer[9928] 	lookupHopsSig:mean 	-nan
scalar Network.dyn_peer[9929] 	lookupTimeSig:mean 	-nan
scalar Network.dyn_peer[9929] 	lookupStabilitySig:mean 	-nan
scalar Network.dyn_peer[9929] 	lookupHopsSig:mean 	-nan
scalar Network.dyn_peer[9930] 	lookupTimeSig:mean 	-nan
scalar Network.dyn_peer[9930] 	lookupStabilitySig:mean 	-nan
scalar Network.dyn_peer[9930] 	lookupHopsSig:mean 	-nan
scalar Network.dyn_peer[9931] 	lookupTimeSig:mean 	-nan
scalar Network.dyn_peer[9931] 	lookupStabilitySig:mean 	-nan
scalar Network.dyn_peer[9931] 	lookupHopsSig:mean 	-nan
scalar Network.dyn_peer[9932] 	lookupTimeSig:mean 	-nan
scalar Network.dyn_peer[9932] 	lookupStabilitySig:mean 	-nan
scalar Network.dyn_peer[9932] 	lookupHopsSig:mean 	-nan
scalar Network.dyn_peer[9933] 	lookupTimeSig:mean 	-nan
scalar Network.dyn_peer[9933] 	lookupStabilitySig:mean 	-nan
scalar Network.dyn_peer[9933] 	lookupHopsSig:mean 	-nan
scalar Network.dyn_peer[9934] 	lookupTimeSig:mean 	-nan
scalar Network.dyn_peer[9934] 	lookupStabilitySig:mean 	-nan
scalar Network.dyn_peer[9934] 	lookupHopsSig:mean 	-nan
scalar Network.dyn_peer[9935] 	lookupTimeSig:mean 	-nan
scalar Network.dyn_peer[9935] 	lookupStabilitySig:mean 	-nan
scalar Network.dyn_peer[9935] 	lookupHopsSig:mean 	-nan
scalar Network.dyn_peer[9936] 	lookupTimeSig:mean 	-nan
scalar Network.dyn_peer[9936] 	lookupStabilitySig:mean 	-nan
scalar Network.dyn_peer[9936] 	lookupHopsSig:mean 	-nan
scalar Network.dyn_peer[9937] 	lookupTimeSig:mean 	-nan
scalar Network.dyn_peer[9937] 	lookupStabilitySig:mean 	-nan
scalar Network.dyn_peer[9937] 	lookupHopsSig:mean 	-nan
scalar Network.dyn_peer[9938] 	lookupTimeSig:mean 	-nan
scalar Network.dyn_peer[9938] 	lookupStabilitySig:mean 	-nan
scalar Network.dyn_peer[9938] 	lookupHopsSig:mean 	-nan
scalar Network.dyn_peer[9939] 	lookupTimeSig:mean 	-nan
scalar Network.dyn_peer[9939] 	lookupStabilitySig:mean 	-nan
scalar Network.dyn_peer[9939] 	lookupHopsSig:mean 	-nan
scalar Network.dyn_peer[9940] 	lookupTimeSig:mean 	-nan
scalar Network.dyn_peer[9940] 	lookupStabilitySig:mean 	-nan
scalar Network.dyn_peer[9940] 	lookupHopsSig:mean 	-nan
scalar Network.dyn_peer[9941] 	lookupTimeSig:mean 	-nan
scalar Network.dyn_peer[9941] 	lookupStabilitySig:mean 	-nan
scalar Network.dyn_peer[9941] 	lookupHopsSig:mean 	-nan
scalar Network.dyn_peer[9942] 	lookupTimeSig:mean 	-nan
scalar Network.dyn_peer[9942] 	lookupStabilitySig:mean 	-nan
scalar Network.dyn_peer[9942] 	lookupHopsSig:mean 	-nan
scalar Network.dyn_peer[9943] 	lookupTimeSig:mean 	-nan
scalar Network.dyn_peer[9943] 	lookupStabilitySig:mean 	-nan
scalar Network.dyn_peer[9943] 	lookupHopsSig:mean 	-nan
scalar Network.dyn_peer[9944] 	lookupTimeSig:mean 	-nan
scalar Network.dyn_peer[9944] 	lookupStabilitySig:mean 	-nan
scalar Network.dyn_peer[9944] 	lookupHopsSig:mean 	-nan
scalar Network.dyn_peer[9945] 	lookupTimeSig:mean 	-nan
scalar Network.dyn_peer[9945] 	lookupStabilitySig:mean 	-nan
scalar Network.dyn_peer[9945] 	lookupHopsSig:mean 	-nan
scalar Network.dyn_peer[9946] 	lookupTimeSig:mean 	-nan
scalar Network.dyn_peer[9946] 	lookupStabilitySig:mean 	-nan
scalar Network.dyn_peer[9946] 	lookupHopsSig:mean 	-nan
scalar Network.dyn_peer[9947] 	lookupTimeSig:mean 	-nan
scalar Network.dyn_peer[9947] 	lookupStabilitySig:mean 	-nan
scalar Network.dyn_peer[9947] 	lookupHopsSig:mean 	-nan
scalar Network.dyn_peer[9948] 	lookupTimeSig:mean 	-nan
scalar Network.dyn_peer[9948] 	lookupStabilitySig:mean 	-nan
scalar Network.dyn_peer[9948] 	lookupHopsSig:mean 	-nan
scalar Network.dyn_peer[9949] 	lookupTimeSig:mean 	-nan
scalar Network.dyn_peer[9949] 	lookupStabilitySig:mean 	-nan
scalar Network.dyn_peer[9949] 	lookupHopsSig:mean 	-nan
scalar Network.dyn_peer[9950] 	lookupTimeSig:mean 	-nan
scalar Network.dyn_peer[9950] 	lookupStabilitySig:mean 	-nan
scalar Network.dyn_peer[9950] 	lookupHopsSig:mean 	-nan
scalar Network.dyn_peer[9951] 	lookupTimeSig:mean 	-nan
scalar Network.dyn_peer[9951] 	lookupStabilitySig:mean 	-nan
scalar Network.dyn_peer[9951] 	lookupHopsSig:mean 	-nan
scalar Network.dyn_peer[9952] 	lookupTimeSig:mean 	-nan
scalar Network.dyn_peer[9952] 	lookupStabilitySig:mean 	-nan
scalar Network.dyn_peer[9952] 	lookupHopsSig:mean 	-nan
scalar Network.dyn_peer[9953] 	lookupTimeSig:mean 	-nan
scalar Network.dyn_peer[9953] 	lookupStabilitySig:mean 	-nan
scalar Network.dyn_peer[9953] 	lookupHopsSig:mean 	-nan
scalar Network.dyn_peer[9954] 	lookupTimeSig:mean 	-nan
scalar Network.dyn_peer[9954] 	lookupStabilitySig:mean 	-nan
scalar Network.dyn_peer[9954] 	lookupHopsSig:mean 	-nan
scalar Network.dyn_peer[9955] 	lookupTimeSig:mean 	-nan
scalar Network.dyn_peer[9955] 	lookupStabilitySig:mean 	-nan
scalar Network.dyn_peer[9955] 	lookupHopsSig:mean 	-nan
scalar Network.dyn_peer[9956] 	lookupTimeSig:mean 	-nan
scalar Network.dyn_peer[9956] 	lookupStabilitySig:mean 	-nan
scalar Network.dyn_peer[9956] 	lookupHopsSig:mean 	-nan
scalar Network.dyn_peer[9957] 	lookupTimeSig:mean 	-nan
scalar Network.dyn_peer[9957] 	lookupStabilitySig:mean 	-nan
scalar Network.dyn_peer[9957] 	lookupHopsSig:mean 	-nan
scalar Network.dyn_peer[9958] 	lookupTimeSig:mean 	-nan
scalar Network.dyn_peer[9958] 	lookupStabilitySig:mean 	-nan
scalar Network.dyn_peer[9958] 	lookupHopsSig:mean 	-nan
scalar Network.dyn_peer[9959] 	lookupTimeSig:mean 	-nan
scalar Network.dyn_peer[9959] 	lookupStabilitySig:mean 	-nan
scalar Network.dyn_peer[9959] 	lookupHopsSig:mean 	-nan
scalar Network.dyn_peer[9960] 	lookupTimeSig:mean 	-nan
scalar Network.dyn_peer[9960] 	lookupStabilitySig:mean 	-nan
scalar Network.dyn_peer[9960] 	lookupHopsSig:mean 	-nan
scalar Network.dyn_peer[9961] 	lookupTimeSig:mean 	-nan
scalar Network.dyn_peer[9961] 	lookupStabilitySig:mean 	-nan
scalar Network.dyn_peer[9961] 	lookupHopsSig:mean 	-nan
scalar Network.dyn_peer[9962] 	lookupTimeSig:mean 	-nan
scalar Network.dyn_peer[9962] 	lookupStabilitySig:mean 	-nan
scalar Network.dyn_peer[9962] 	lookupHopsSig:mean 	-nan
scalar Network.dyn_peer[9963] 	lookupTimeSig:mean 	-nan
scalar Network.dyn_peer[9963] 	lookupStabilitySig:mean 	-nan
scalar Network.dyn_peer[9963] 	lookupHopsSig:mean 	-nan
scalar Network.dyn_peer[9964] 	lookupTimeSig:mean 	-nan
scalar Network.dyn_peer[9964] 	lookupStabilitySig:mean 	-nan
scalar Network.dyn_peer[9964] 	lookupHopsSig:mean 	-nan
scalar Network.dyn_peer[9965] 	lookupTimeSig:mean 	-nan
scalar Network.dyn_peer[9965] 	lookupStabilitySig:mean 	-nan
scalar Network.dyn_peer[9965] 	lookupHopsSig:mean 	-nan
scalar Network.dyn_peer[9966] 	lookupTimeSig:mean 	-nan
scalar Network.dyn_peer[9966] 	lookupStabilitySig:mean 	-nan
scalar Network.dyn_peer[9966] 	lookupHopsSig:mean 	-nan
scalar Network.dyn_peer[9967] 	lookupTimeSig:mean 	-nan
scalar Network.dyn_peer[9967] 	lookupStabilitySig:mean 	-nan
scalar Network.dyn_peer[9967] 	lookupHopsSig:mean 	-nan
scalar Network.dyn_peer[9968] 	lookupTimeSig:mean 	-nan
scalar Network.dyn_peer[9968] 	lookupStabilitySig:mean 	-nan
scalar Network.dyn_peer[9968] 	lookupHopsSig:mean 	-nan
scalar Network.dyn_peer[9969] 	lookupTimeSig:mean 	-nan
scalar Network.dyn_peer[9969] 	lookupStabilitySig:mean 	-nan
scalar Network.dyn_peer[9969] 	lookupHopsSig:mean 	-nan
scalar Network.dyn_peer[9970] 	lookupTimeSig:mean 	-nan
scalar Network.dyn_peer[9970] 	lookupStabilitySig:mean 	-nan
scalar Network.dyn_peer[9970] 	lookupHopsSig:mean 	-nan
scalar Network.dyn_peer[9971] 	lookupTimeSig:mean 	-nan
scalar Network.dyn_peer[9971] 	lookupStabilitySig:mean 	-nan
scalar Network.dyn_peer[9971] 	lookupHopsSig:mean 	-nan
scalar Network.dyn_peer[9972] 	lookupTimeSig:mean 	-nan
scalar Network.dyn_peer[9972] 	lookupStabilitySig:mean 	-nan
scalar Network.dyn_peer[9972] 	lookupHopsSig:mean 	-nan
scalar Network.dyn_peer[9973] 	lookupTimeSig:mean 	-nan
scalar Network.dyn_peer[9973] 	lookupStabilitySig:mean 	-nan
scalar Network.dyn_peer[9973] 	lookupHopsSig:mean 	-nan
scalar Network.dyn_peer[9974] 	lookupTimeSig:mean 	-nan
scalar Network.dyn_peer[9974] 	lookupStabilitySig:mean 	-nan
scalar Network.dyn_peer[9974] 	lookupHopsSig:mean 	-nan
scalar Network.dyn_peer[9975] 	lookupTimeSig:mean 	-nan
scalar Network.dyn_peer[9975] 	lookupStabilitySig:mean 	-nan
scalar Network.dyn_peer[9975] 	lookupHopsSig:mean 	-nan
scalar Network.dyn_peer[9976] 	lookupTimeSig:mean 	-nan
scalar Network.dyn_peer[9976] 	lookupStabilitySig:mean 	-nan
scalar Network.dyn_peer[9976] 	lookupHopsSig:mean 	-nan
scalar Network.dyn_peer[9977] 	lookupTimeSig:mean 	-nan
scalar Network.dyn_peer[9977] 	lookupStabilitySig:mean 	-nan
scalar Network.dyn_peer[9977] 	lookupHopsSig:mean 	-nan
scalar Network.dyn_peer[9978] 	lookupTimeSig:mean 	-nan
scalar Network.dyn_peer[9978] 	lookupStabilitySig:mean 	-nan
scalar Network.dyn_peer[9978] 	lookupHopsSig:mean 	-nan
scalar Network.dyn_peer[9979] 	lookupTimeSig:mean 	-nan
scalar Network.dyn_peer[9979] 	lookupStabilitySig:mean 	-nan
scalar Network.dyn_peer[9979] 	lookupHopsSig:mean 	-nan
scalar Network.dyn_peer[9980] 	lookupTimeSig:mean 	-nan
scalar Network.dyn_peer[9980] 	lookupStabilitySig:mean 	-nan
scalar Network.dyn_peer[9980] 	lookupHopsSig:mean 	-nan
scalar Network.dyn_peer[9981] 	lookupTimeSig:mean 	-nan
scalar Network.dyn_peer[9981] 	lookupStabilitySig:mean 	-nan
scalar Network.dyn_peer[9981] 	lookupHopsSig:mean 	-nan
scalar Network.dyn_peer[9982] 	lookupTimeSig:mean 	-nan
scalar Network.dyn_peer[9982] 	lookupStabilitySig:mean 	-nan
scalar Network.dyn_peer[9982] 	lookupHopsSig:mean 	-nan
scalar Network.dyn_peer[9983] 	lookupTimeSig:mean 	-nan
scalar Network.dyn_peer[9983] 	lookupStabilitySig:mean 	-nan
scalar Network.dyn_peer[9983] 	lookupHopsSig:mean 	-nan
scalar Network.dyn_peer[9984] 	lookupTimeSig:mean 	-nan
scalar Network.dyn_peer[9984] 	lookupStabilitySig:mean 	-nan
scalar Network.dyn_peer[9984] 	lookupHopsSig:mean 	-nan
scalar Network.dyn_peer[9985] 	lookupTimeSig:mean 	-nan
scalar Network.dyn_peer[9985] 	lookupStabilitySig:mean 	-nan
scalar Network.dyn_peer[9985] 	lookupHopsSig:mean 	-nan
scalar Network.dyn_peer[9986] 	lookupTimeSig:mean 	-nan
scalar Network.dyn_peer[9986] 	lookupStabilitySig:mean 	-nan
scalar Network.dyn_peer[9986] 	lookupHopsSig:mean 	-nan
scalar Network.dyn_peer[9987] 	lookupTimeSig:mean 	-nan
scalar Network.dyn_peer[9987] 	lookupStabilitySig:mean 	-nan
scalar Network.dyn_peer[9987] 	lookupHopsSig:mean 	-nan
scalar Network.dyn_peer[9988] 	lookupTimeSig:mean 	-nan
scalar Network.dyn_peer[9988] 	lookupStabilitySig:mean 	-nan
scalar Network.dyn_peer[9988] 	lookupHopsSig:mean 	-nan
scalar Network.dyn_peer[9989] 	lookupTimeSig:mean 	-nan
scalar Network.dyn_peer[9989] 	lookupStabilitySig:mean 	-nan
scalar Network.dyn_peer[9989] 	lookupHopsSig:mean 	-nan
scalar Network.dyn_peer[9990] 	lookupTimeSig:mean 	-nan
scalar Network.dyn_peer[9990] 	lookupStabilitySig:mean 	-nan
scalar Network.dyn_peer[9990] 	lookupHopsSig:mean 	-nan
scalar Network.dyn_peer[9991] 	lookupTimeSig:mean 	-nan
scalar Network.dyn_peer[9991] 	lookupStabilitySig:mean 	-nan
scalar Network.dyn_peer[9991] 	lookupHopsSig:mean 	-nan
scalar Network.dyn_peer[9992] 	lookupTimeSig:mean 	-nan
scalar Network.dyn_peer[9992] 	lookupStabilitySig:mean 	-nan
scalar Network.dyn_peer[9992] 	lookupHopsSig:mean 	-nan
scalar Network.dyn_peer[9993] 	lookupTimeSig:mean 	-nan
scalar Network.dyn_peer[9993] 	lookupStabilitySig:mean 	-nan
scalar Network.dyn_peer[9993] 	lookupHopsSig:mean 	-nan
scalar Network.dyn_peer[9994] 	lookupTimeSig:mean 	-nan
scalar Network.dyn_peer[9994] 	lookupStabilitySig:mean 	-nan
scalar Network.dyn_peer[9994] 	lookupHopsSig:mean 	-nan
scalar Network.dyn_peer[9995] 	lookupTimeSig:mean 	-nan
scalar Network.dyn_peer[9995] 	lookupStabilitySig:mean 	-nan
scalar Network.dyn_peer[9995] 	lookupHopsSig:mean 	-nan
scalar Network.dyn_peer[9996] 	lookupTimeSig:mean 	-nan
scalar Network.dyn_peer[9996] 	lookupStabilitySig:mean 	-nan
scalar Network.dyn_peer[9996] 	lookupHopsSig:mean 	-nan
scalar Network.dyn_peer[9997] 	lookupTimeSig:mean 	-nan
scalar Network.dyn_peer[9997] 	lookupStabilitySig:mean 	-nan
scalar Network.dyn_peer[9997] 	lookupHopsSig:mean 	-nan
scalar Network.dyn_peer[9998] 	lookupTimeSig:mean 	-nan
scalar Network.dyn_peer[9998] 	lookupStabilitySig:mean 	-nan
scalar Network.dyn_peer[9998] 	lookupHopsSig:mean 	-nan
scalar Network.dyn_peer[9999] 	lookupTimeSig:mean 	-nan
scalar Network.dyn_peer[9999] 	lookupStabilitySig:mean 	-nan
scalar Network.dyn_peer[9999] 	lookupHopsSig:mean 	-nan
scalar Network.churner 	inGoingSizeSig:mean 	1092.7668082979
