version 2
run Stability2-108-20130528-11:53:08-24168
attr configname Stability2
attr datetime 20130528-11:53:08
attr experiment Stability2
attr inifile omnetpp.ini
attr iterationvars $0=1000
attr iterationvars2 "$0=1000, $repetition=8"
attr measurement $0=1000
attr network Network
attr processid 24168
attr repetition 8
attr replication #8
attr resultdir results
attr runnumber 108
attr seedset 108

scalar Network.dyn_peer[0] 	lookupTimeSig:mean 	3.4392857142857
scalar Network.dyn_peer[0] 	lookupStabilitySig:mean 	0.89488660808378
scalar Network.dyn_peer[0] 	lookupHopsSig:mean 	33.428571428571
scalar Network.dyn_peer[1] 	lookupTimeSig:mean 	3.147619047619
scalar Network.dyn_peer[1] 	lookupStabilitySig:mean 	0.86561087630911
scalar Network.dyn_peer[1] 	lookupHopsSig:mean 	30.52380952381
scalar Network.dyn_peer[2] 	lookupTimeSig:mean 	4.63125
scalar Network.dyn_peer[2] 	lookupStabilitySig:mean 	0.86244933656417
scalar Network.dyn_peer[2] 	lookupHopsSig:mean 	45.375
scalar Network.dyn_peer[3] 	lookupTimeSig:mean 	2.4785714285714
scalar Network.dyn_peer[3] 	lookupStabilitySig:mean 	0.80482828510659
scalar Network.dyn_peer[3] 	lookupHopsSig:mean 	23.857142857143
scalar Network.dyn_peer[4] 	lookupTimeSig:mean 	2.9470588235294
scalar Network.dyn_peer[4] 	lookupStabilitySig:mean 	0.84603114083738
scalar Network.dyn_peer[4] 	lookupHopsSig:mean 	28.529411764706
scalar Network.dyn_peer[5] 	lookupTimeSig:mean 	3.2142857142857
scalar Network.dyn_peer[5] 	lookupStabilitySig:mean 	0.81548834698541
scalar Network.dyn_peer[5] 	lookupHopsSig:mean 	31.214285714286
scalar Network.dyn_peer[6] 	lookupTimeSig:mean 	3.7958333333333
scalar Network.dyn_peer[6] 	lookupStabilitySig:mean 	0.91207137690314
scalar Network.dyn_peer[6] 	lookupHopsSig:mean 	37
scalar Network.dyn_peer[7] 	lookupTimeSig:mean 	3.9888888888889
scalar Network.dyn_peer[7] 	lookupStabilitySig:mean 	0.84499282379531
scalar Network.dyn_peer[7] 	lookupHopsSig:mean 	38.944444444444
scalar Network.dyn_peer[8] 	lookupTimeSig:mean 	2.7
scalar Network.dyn_peer[8] 	lookupStabilitySig:mean 	0.87182590829047
scalar Network.dyn_peer[8] 	lookupHopsSig:mean 	26.04347826087
scalar Network.dyn_peer[9] 	lookupTimeSig:mean 	3.4428571428571
scalar Network.dyn_peer[9] 	lookupStabilitySig:mean 	0.90772534026543
scalar Network.dyn_peer[9] 	lookupHopsSig:mean 	33.47619047619
scalar Network.dyn_peer[10] 	lookupTimeSig:mean 	3.4777777777778
scalar Network.dyn_peer[10] 	lookupStabilitySig:mean 	0.88071934921512
scalar Network.dyn_peer[10] 	lookupHopsSig:mean 	33.833333333333
scalar Network.dyn_peer[11] 	lookupTimeSig:mean 	2.5
scalar Network.dyn_peer[11] 	lookupStabilitySig:mean 	0.80120390395833
scalar Network.dyn_peer[11] 	lookupHopsSig:mean 	24.071428571429
scalar Network.dyn_peer[12] 	lookupTimeSig:mean 	2.8083333333333
scalar Network.dyn_peer[12] 	lookupStabilitySig:mean 	0.8059099278471
scalar Network.dyn_peer[12] 	lookupHopsSig:mean 	27.166666666667
scalar Network.dyn_peer[13] 	lookupTimeSig:mean 	2.7190476190476
scalar Network.dyn_peer[13] 	lookupStabilitySig:mean 	0.8770543784402
scalar Network.dyn_peer[13] 	lookupHopsSig:mean 	26.238095238095
scalar Network.dyn_peer[14] 	lookupTimeSig:mean 	2.9647058823529
scalar Network.dyn_peer[14] 	lookupStabilitySig:mean 	0.84850481177187
scalar Network.dyn_peer[14] 	lookupHopsSig:mean 	28.705882352941
scalar Network.dyn_peer[15] 	lookupTimeSig:mean 	3.6090909090909
scalar Network.dyn_peer[15] 	lookupStabilitySig:mean 	0.88316846742633
scalar Network.dyn_peer[15] 	lookupHopsSig:mean 	35.136363636364
scalar Network.dyn_peer[16] 	lookupTimeSig:mean 	2.6333333333333
scalar Network.dyn_peer[16] 	lookupStabilitySig:mean 	0.80311082932167
scalar Network.dyn_peer[16] 	lookupHopsSig:mean 	25.416666666667
scalar Network.dyn_peer[17] 	lookupTimeSig:mean 	3.704347826087
scalar Network.dyn_peer[17] 	lookupStabilitySig:mean 	0.88977398790682
scalar Network.dyn_peer[17] 	lookupHopsSig:mean 	36.086956521739
scalar Network.dyn_peer[18] 	lookupTimeSig:mean 	3.045
scalar Network.dyn_peer[18] 	lookupStabilitySig:mean 	0.8694797979435
scalar Network.dyn_peer[18] 	lookupHopsSig:mean 	29.5
scalar Network.dyn_peer[19] 	lookupTimeSig:mean 	4.5
scalar Network.dyn_peer[19] 	lookupStabilitySig:mean 	0.88979747656008
scalar Network.dyn_peer[19] 	lookupHopsSig:mean 	44.055555555556
scalar Network.dyn_peer[20] 	lookupTimeSig:mean 	2.5941176470588
scalar Network.dyn_peer[20] 	lookupStabilitySig:mean 	0.86535294782644
scalar Network.dyn_peer[20] 	lookupHopsSig:mean 	25
scalar Network.dyn_peer[21] 	lookupTimeSig:mean 	2.45
scalar Network.dyn_peer[21] 	lookupStabilitySig:mean 	0.87351036824984
scalar Network.dyn_peer[21] 	lookupHopsSig:mean 	23.55
scalar Network.dyn_peer[22] 	lookupTimeSig:mean 	3.45625
scalar Network.dyn_peer[22] 	lookupStabilitySig:mean 	0.84008630507742
scalar Network.dyn_peer[22] 	lookupHopsSig:mean 	33.625
scalar Network.dyn_peer[23] 	lookupTimeSig:mean 	3.2941176470588
scalar Network.dyn_peer[23] 	lookupStabilitySig:mean 	0.86897086912958
scalar Network.dyn_peer[23] 	lookupHopsSig:mean 	32
scalar Network.dyn_peer[24] 	lookupTimeSig:mean 	2.8608695652174
scalar Network.dyn_peer[24] 	lookupStabilitySig:mean 	0.89481835130035
scalar Network.dyn_peer[24] 	lookupHopsSig:mean 	27.652173913043
scalar Network.dyn_peer[25] 	lookupTimeSig:mean 	3.0086956521739
scalar Network.dyn_peer[25] 	lookupStabilitySig:mean 	0.91798217762667
scalar Network.dyn_peer[25] 	lookupHopsSig:mean 	29.130434782609
scalar Network.dyn_peer[26] 	lookupTimeSig:mean 	2.288
scalar Network.dyn_peer[26] 	lookupStabilitySig:mean 	0.92882613220718
scalar Network.dyn_peer[26] 	lookupHopsSig:mean 	21.92
scalar Network.dyn_peer[27] 	lookupTimeSig:mean 	4.176
scalar Network.dyn_peer[27] 	lookupStabilitySig:mean 	0.89851538063027
scalar Network.dyn_peer[27] 	lookupHopsSig:mean 	40.8
scalar Network.dyn_peer[28] 	lookupTimeSig:mean 	2.625
scalar Network.dyn_peer[28] 	lookupStabilitySig:mean 	0.85897018401495
scalar Network.dyn_peer[28] 	lookupHopsSig:mean 	25.333333333333
scalar Network.dyn_peer[29] 	lookupTimeSig:mean 	3.9894736842105
scalar Network.dyn_peer[29] 	lookupStabilitySig:mean 	0.91654059281083
scalar Network.dyn_peer[29] 	lookupHopsSig:mean 	38.947368421053
scalar Network.dyn_peer[30] 	lookupTimeSig:mean 	3.23125
scalar Network.dyn_peer[30] 	lookupStabilitySig:mean 	0.87435031306813
scalar Network.dyn_peer[30] 	lookupHopsSig:mean 	31.375
scalar Network.dyn_peer[31] 	lookupTimeSig:mean 	3.5173913043478
scalar Network.dyn_peer[31] 	lookupStabilitySig:mean 	0.92280577822669
scalar Network.dyn_peer[31] 	lookupHopsSig:mean 	34.217391304348
scalar Network.dyn_peer[32] 	lookupTimeSig:mean 	3.5181818181818
scalar Network.dyn_peer[32] 	lookupStabilitySig:mean 	0.9041007116056
scalar Network.dyn_peer[32] 	lookupHopsSig:mean 	34.227272727273
scalar Network.dyn_peer[33] 	lookupTimeSig:mean 	2.7434782608696
scalar Network.dyn_peer[33] 	lookupStabilitySig:mean 	0.9090002149384
scalar Network.dyn_peer[33] 	lookupHopsSig:mean 	26.478260869565
scalar Network.dyn_peer[34] 	lookupTimeSig:mean 	2.4357142857143
scalar Network.dyn_peer[34] 	lookupStabilitySig:mean 	0.87956571445933
scalar Network.dyn_peer[34] 	lookupHopsSig:mean 	23.428571428571
scalar Network.dyn_peer[35] 	lookupTimeSig:mean 	3.3157894736842
scalar Network.dyn_peer[35] 	lookupStabilitySig:mean 	0.90944102191133
scalar Network.dyn_peer[35] 	lookupHopsSig:mean 	32.210526315789
scalar Network.dyn_peer[36] 	lookupTimeSig:mean 	4.6666666666667
scalar Network.dyn_peer[36] 	lookupStabilitySig:mean 	0.89791905396851
scalar Network.dyn_peer[36] 	lookupHopsSig:mean 	45.708333333333
scalar Network.dyn_peer[37] 	lookupTimeSig:mean 	2.6772727272727
scalar Network.dyn_peer[37] 	lookupStabilitySig:mean 	0.93472768588584
scalar Network.dyn_peer[37] 	lookupHopsSig:mean 	25.818181818182
scalar Network.dyn_peer[38] 	lookupTimeSig:mean 	3.76875
scalar Network.dyn_peer[38] 	lookupStabilitySig:mean 	0.8779156577657
scalar Network.dyn_peer[38] 	lookupHopsSig:mean 	36.75
scalar Network.dyn_peer[39] 	lookupTimeSig:mean 	2.85
scalar Network.dyn_peer[39] 	lookupStabilitySig:mean 	0.88838440128085
scalar Network.dyn_peer[39] 	lookupHopsSig:mean 	27.555555555556
scalar Network.dyn_peer[40] 	lookupTimeSig:mean 	2.875
scalar Network.dyn_peer[40] 	lookupStabilitySig:mean 	0.89612509636208
scalar Network.dyn_peer[40] 	lookupHopsSig:mean 	27.833333333333
scalar Network.dyn_peer[41] 	lookupTimeSig:mean 	3.9434782608696
scalar Network.dyn_peer[41] 	lookupStabilitySig:mean 	0.9134988665439
scalar Network.dyn_peer[41] 	lookupHopsSig:mean 	38.478260869565
scalar Network.dyn_peer[42] 	lookupTimeSig:mean 	2.7266666666667
scalar Network.dyn_peer[42] 	lookupStabilitySig:mean 	0.85987425787995
scalar Network.dyn_peer[42] 	lookupHopsSig:mean 	26.333333333333
scalar Network.dyn_peer[43] 	lookupTimeSig:mean 	2.855
scalar Network.dyn_peer[43] 	lookupStabilitySig:mean 	0.92883922156179
scalar Network.dyn_peer[43] 	lookupHopsSig:mean 	27.6
scalar Network.dyn_peer[44] 	lookupTimeSig:mean 	3.515
scalar Network.dyn_peer[44] 	lookupStabilitySig:mean 	0.90273443545448
scalar Network.dyn_peer[44] 	lookupHopsSig:mean 	34.2
scalar Network.dyn_peer[45] 	lookupTimeSig:mean 	3.5565217391304
scalar Network.dyn_peer[45] 	lookupStabilitySig:mean 	0.89751646792233
scalar Network.dyn_peer[45] 	lookupHopsSig:mean 	34.608695652174
scalar Network.dyn_peer[46] 	lookupTimeSig:mean 	3.5173913043478
scalar Network.dyn_peer[46] 	lookupStabilitySig:mean 	0.91821031952682
scalar Network.dyn_peer[46] 	lookupHopsSig:mean 	34.217391304348
scalar Network.dyn_peer[47] 	lookupTimeSig:mean 	3.7428571428571
scalar Network.dyn_peer[47] 	lookupStabilitySig:mean 	0.93168287455947
scalar Network.dyn_peer[47] 	lookupHopsSig:mean 	36.47619047619
scalar Network.dyn_peer[48] 	lookupTimeSig:mean 	2.7545454545455
scalar Network.dyn_peer[48] 	lookupStabilitySig:mean 	0.93518910037396
scalar Network.dyn_peer[48] 	lookupHopsSig:mean 	26.590909090909
scalar Network.dyn_peer[49] 	lookupTimeSig:mean 	3.0409090909091
scalar Network.dyn_peer[49] 	lookupStabilitySig:mean 	0.89938602257859
scalar Network.dyn_peer[49] 	lookupHopsSig:mean 	29.454545454545
scalar Network.dyn_peer[50] 	lookupTimeSig:mean 	2.6578947368421
scalar Network.dyn_peer[50] 	lookupStabilitySig:mean 	0.88687971038254
scalar Network.dyn_peer[50] 	lookupHopsSig:mean 	25.631578947368
scalar Network.dyn_peer[51] 	lookupTimeSig:mean 	2.8235294117647
scalar Network.dyn_peer[51] 	lookupStabilitySig:mean 	0.88112273519201
scalar Network.dyn_peer[51] 	lookupHopsSig:mean 	27.294117647059
scalar Network.dyn_peer[52] 	lookupTimeSig:mean 	3.2777777777778
scalar Network.dyn_peer[52] 	lookupStabilitySig:mean 	0.91943101373424
scalar Network.dyn_peer[52] 	lookupHopsSig:mean 	31.833333333333
scalar Network.dyn_peer[53] 	lookupTimeSig:mean 	1.6571428571429
scalar Network.dyn_peer[53] 	lookupStabilitySig:mean 	0.88270456164277
scalar Network.dyn_peer[53] 	lookupHopsSig:mean 	15.642857142857
scalar Network.dyn_peer[54] 	lookupTimeSig:mean 	3.4473684210526
scalar Network.dyn_peer[54] 	lookupStabilitySig:mean 	0.92689340051852
scalar Network.dyn_peer[54] 	lookupHopsSig:mean 	33.526315789474
scalar Network.dyn_peer[55] 	lookupTimeSig:mean 	3.0733333333333
scalar Network.dyn_peer[55] 	lookupStabilitySig:mean 	0.88970569204539
scalar Network.dyn_peer[55] 	lookupHopsSig:mean 	29.8
scalar Network.dyn_peer[56] 	lookupTimeSig:mean 	3.9761904761905
scalar Network.dyn_peer[56] 	lookupStabilitySig:mean 	0.93720141618646
scalar Network.dyn_peer[56] 	lookupHopsSig:mean 	38.809523809524
scalar Network.dyn_peer[57] 	lookupTimeSig:mean 	4.5428571428571
scalar Network.dyn_peer[57] 	lookupStabilitySig:mean 	0.94530139952188
scalar Network.dyn_peer[57] 	lookupHopsSig:mean 	44.47619047619
scalar Network.dyn_peer[58] 	lookupTimeSig:mean 	2.4615384615385
scalar Network.dyn_peer[58] 	lookupStabilitySig:mean 	0.86447662702547
scalar Network.dyn_peer[58] 	lookupHopsSig:mean 	23.692307692308
scalar Network.dyn_peer[59] 	lookupTimeSig:mean 	3.0590909090909
scalar Network.dyn_peer[59] 	lookupStabilitySig:mean 	0.93736501282547
scalar Network.dyn_peer[59] 	lookupHopsSig:mean 	29.636363636364
scalar Network.dyn_peer[60] 	lookupTimeSig:mean 	3.8526315789474
scalar Network.dyn_peer[60] 	lookupStabilitySig:mean 	0.94787138465204
scalar Network.dyn_peer[60] 	lookupHopsSig:mean 	37.578947368421
scalar Network.dyn_peer[61] 	lookupTimeSig:mean 	4.8736842105263
scalar Network.dyn_peer[61] 	lookupStabilitySig:mean 	0.92807659609733
scalar Network.dyn_peer[61] 	lookupHopsSig:mean 	47.789473684211
scalar Network.dyn_peer[62] 	lookupTimeSig:mean 	4.4210526315789
scalar Network.dyn_peer[62] 	lookupStabilitySig:mean 	0.92525794979577
scalar Network.dyn_peer[62] 	lookupHopsSig:mean 	43.263157894737
scalar Network.dyn_peer[63] 	lookupTimeSig:mean 	2.1944444444444
scalar Network.dyn_peer[63] 	lookupStabilitySig:mean 	0.92355165581426
scalar Network.dyn_peer[63] 	lookupHopsSig:mean 	21
scalar Network.dyn_peer[64] 	lookupTimeSig:mean 	1.7214285714286
scalar Network.dyn_peer[64] 	lookupStabilitySig:mean 	0.89170410613795
scalar Network.dyn_peer[64] 	lookupHopsSig:mean 	16.285714285714
scalar Network.dyn_peer[65] 	lookupTimeSig:mean 	3.6117647058824
scalar Network.dyn_peer[65] 	lookupStabilitySig:mean 	0.92737345828894
scalar Network.dyn_peer[65] 	lookupHopsSig:mean 	35.176470588235
scalar Network.dyn_peer[66] 	lookupTimeSig:mean 	2.5964285714286
scalar Network.dyn_peer[66] 	lookupStabilitySig:mean 	0.9328481974496
scalar Network.dyn_peer[66] 	lookupHopsSig:mean 	25
scalar Network.dyn_peer[67] 	lookupTimeSig:mean 	2.175
scalar Network.dyn_peer[67] 	lookupStabilitySig:mean 	0.9182267178694
scalar Network.dyn_peer[67] 	lookupHopsSig:mean 	20.8125
scalar Network.dyn_peer[68] 	lookupTimeSig:mean 	3.1
scalar Network.dyn_peer[68] 	lookupStabilitySig:mean 	0.93986952179314
scalar Network.dyn_peer[68] 	lookupHopsSig:mean 	30.04347826087
scalar Network.dyn_peer[69] 	lookupTimeSig:mean 	3.2111111111111
scalar Network.dyn_peer[69] 	lookupStabilitySig:mean 	0.92654551689823
scalar Network.dyn_peer[69] 	lookupHopsSig:mean 	31.166666666667
scalar Network.dyn_peer[70] 	lookupTimeSig:mean 	2.4277777777778
scalar Network.dyn_peer[70] 	lookupStabilitySig:mean 	0.92639766219589
scalar Network.dyn_peer[70] 	lookupHopsSig:mean 	23.333333333333
scalar Network.dyn_peer[71] 	lookupTimeSig:mean 	2.65
scalar Network.dyn_peer[71] 	lookupStabilitySig:mean 	0.9315589878679
scalar Network.dyn_peer[71] 	lookupHopsSig:mean 	25.5625
scalar Network.dyn_peer[72] 	lookupTimeSig:mean 	2.8555555555556
scalar Network.dyn_peer[72] 	lookupStabilitySig:mean 	0.91305513652818
scalar Network.dyn_peer[72] 	lookupHopsSig:mean 	27.611111111111
scalar Network.dyn_peer[73] 	lookupTimeSig:mean 	3.2424242424242
scalar Network.dyn_peer[73] 	lookupStabilitySig:mean 	0.95247722850322
scalar Network.dyn_peer[73] 	lookupHopsSig:mean 	31.454545454545
scalar Network.dyn_peer[74] 	lookupTimeSig:mean 	4.2083333333333
scalar Network.dyn_peer[74] 	lookupStabilitySig:mean 	0.92041468686269
scalar Network.dyn_peer[74] 	lookupHopsSig:mean 	41.125
scalar Network.dyn_peer[75] 	lookupTimeSig:mean 	3.0888888888889
scalar Network.dyn_peer[75] 	lookupStabilitySig:mean 	0.95181554113515
scalar Network.dyn_peer[75] 	lookupHopsSig:mean 	29.944444444444
scalar Network.dyn_peer[76] 	lookupTimeSig:mean 	2.3933333333333
scalar Network.dyn_peer[76] 	lookupStabilitySig:mean 	0.92367451895649
scalar Network.dyn_peer[76] 	lookupHopsSig:mean 	23
scalar Network.dyn_peer[77] 	lookupTimeSig:mean 	3.5263157894737
scalar Network.dyn_peer[77] 	lookupStabilitySig:mean 	0.94245758139847
scalar Network.dyn_peer[77] 	lookupHopsSig:mean 	34.315789473684
scalar Network.dyn_peer[78] 	lookupTimeSig:mean 	3.896
scalar Network.dyn_peer[78] 	lookupStabilitySig:mean 	0.93311934098601
scalar Network.dyn_peer[78] 	lookupHopsSig:mean 	38
scalar Network.dyn_peer[79] 	lookupTimeSig:mean 	2.7133333333333
scalar Network.dyn_peer[79] 	lookupStabilitySig:mean 	0.9021882728984
scalar Network.dyn_peer[79] 	lookupHopsSig:mean 	26.2
scalar Network.dyn_peer[80] 	lookupTimeSig:mean 	3.2909090909091
scalar Network.dyn_peer[80] 	lookupStabilitySig:mean 	0.92694647208026
scalar Network.dyn_peer[80] 	lookupHopsSig:mean 	31.954545454545
scalar Network.dyn_peer[81] 	lookupTimeSig:mean 	3.4705882352941
scalar Network.dyn_peer[81] 	lookupStabilitySig:mean 	0.92438802186071
scalar Network.dyn_peer[81] 	lookupHopsSig:mean 	33.764705882353
scalar Network.dyn_peer[82] 	lookupTimeSig:mean 	3.0388888888889
scalar Network.dyn_peer[82] 	lookupStabilitySig:mean 	0.93559690213038
scalar Network.dyn_peer[82] 	lookupHopsSig:mean 	29.444444444444
scalar Network.dyn_peer[83] 	lookupTimeSig:mean 	2.2
scalar Network.dyn_peer[83] 	lookupStabilitySig:mean 	0.92915194461654
scalar Network.dyn_peer[83] 	lookupHopsSig:mean 	21.071428571429
scalar Network.dyn_peer[84] 	lookupTimeSig:mean 	4.0947368421053
scalar Network.dyn_peer[84] 	lookupStabilitySig:mean 	0.93717356531048
scalar Network.dyn_peer[84] 	lookupHopsSig:mean 	40
scalar Network.dyn_peer[85] 	lookupTimeSig:mean 	3.0758620689655
scalar Network.dyn_peer[85] 	lookupStabilitySig:mean 	0.95561307931624
scalar Network.dyn_peer[85] 	lookupHopsSig:mean 	29.793103448276
scalar Network.dyn_peer[86] 	lookupTimeSig:mean 	4.3416666666667
scalar Network.dyn_peer[86] 	lookupStabilitySig:mean 	0.88661119369014
scalar Network.dyn_peer[86] 	lookupHopsSig:mean 	42.5
scalar Network.dyn_peer[87] 	lookupTimeSig:mean 	2.85625
scalar Network.dyn_peer[87] 	lookupStabilitySig:mean 	0.92987148984685
scalar Network.dyn_peer[87] 	lookupHopsSig:mean 	27.625
scalar Network.dyn_peer[88] 	lookupTimeSig:mean 	2.9611111111111
scalar Network.dyn_peer[88] 	lookupStabilitySig:mean 	0.92210078871964
scalar Network.dyn_peer[88] 	lookupHopsSig:mean 	28.666666666667
scalar Network.dyn_peer[89] 	lookupTimeSig:mean 	3.3533333333333
scalar Network.dyn_peer[89] 	lookupStabilitySig:mean 	0.90948308380321
scalar Network.dyn_peer[89] 	lookupHopsSig:mean 	32.6
scalar Network.dyn_peer[90] 	lookupTimeSig:mean 	2.5230769230769
scalar Network.dyn_peer[90] 	lookupStabilitySig:mean 	0.94362471874159
scalar Network.dyn_peer[90] 	lookupHopsSig:mean 	24.269230769231
scalar Network.dyn_peer[91] 	lookupTimeSig:mean 	3.58
scalar Network.dyn_peer[91] 	lookupStabilitySig:mean 	0.94848131291801
scalar Network.dyn_peer[91] 	lookupHopsSig:mean 	34.84
scalar Network.dyn_peer[92] 	lookupTimeSig:mean 	3.0105263157895
scalar Network.dyn_peer[92] 	lookupStabilitySig:mean 	0.93616738314985
scalar Network.dyn_peer[92] 	lookupHopsSig:mean 	29.157894736842
scalar Network.dyn_peer[93] 	lookupTimeSig:mean 	3.6111111111111
scalar Network.dyn_peer[93] 	lookupStabilitySig:mean 	0.90416198027217
scalar Network.dyn_peer[93] 	lookupHopsSig:mean 	35.166666666667
scalar Network.dyn_peer[94] 	lookupTimeSig:mean 	2.9291666666667
scalar Network.dyn_peer[94] 	lookupStabilitySig:mean 	0.95640075777192
scalar Network.dyn_peer[94] 	lookupHopsSig:mean 	28.333333333333
scalar Network.dyn_peer[95] 	lookupTimeSig:mean 	2.7555555555556
scalar Network.dyn_peer[95] 	lookupStabilitySig:mean 	0.95282326386897
scalar Network.dyn_peer[95] 	lookupHopsSig:mean 	26.592592592593
scalar Network.dyn_peer[96] 	lookupTimeSig:mean 	3.5
scalar Network.dyn_peer[96] 	lookupStabilitySig:mean 	0.94466612692728
scalar Network.dyn_peer[96] 	lookupHopsSig:mean 	34.041666666667
scalar Network.dyn_peer[97] 	lookupTimeSig:mean 	3.2870967741935
scalar Network.dyn_peer[97] 	lookupStabilitySig:mean 	0.95567912341005
scalar Network.dyn_peer[97] 	lookupHopsSig:mean 	31.903225806452
scalar Network.dyn_peer[98] 	lookupTimeSig:mean 	2.8166666666667
scalar Network.dyn_peer[98] 	lookupStabilitySig:mean 	0.96475212095538
scalar Network.dyn_peer[98] 	lookupHopsSig:mean 	27.208333333333
scalar Network.dyn_peer[99] 	lookupTimeSig:mean 	3.8041666666667
scalar Network.dyn_peer[99] 	lookupStabilitySig:mean 	0.94754436366687
scalar Network.dyn_peer[99] 	lookupHopsSig:mean 	37.083333333333
scalar Network.dyn_peer[100] 	lookupTimeSig:mean 	3.3333333333333
scalar Network.dyn_peer[100] 	lookupStabilitySig:mean 	0.95392897754209
scalar Network.dyn_peer[100] 	lookupHopsSig:mean 	32.375
scalar Network.dyn_peer[101] 	lookupTimeSig:mean 	4.4909090909091
scalar Network.dyn_peer[101] 	lookupStabilitySig:mean 	0.9494911392685
scalar Network.dyn_peer[101] 	lookupHopsSig:mean 	43.954545454545
scalar Network.dyn_peer[102] 	lookupTimeSig:mean 	2.64
scalar Network.dyn_peer[102] 	lookupStabilitySig:mean 	0.95230654397048
scalar Network.dyn_peer[102] 	lookupHopsSig:mean 	25.44
scalar Network.dyn_peer[103] 	lookupTimeSig:mean 	3.1636363636364
scalar Network.dyn_peer[103] 	lookupStabilitySig:mean 	0.94674708463241
scalar Network.dyn_peer[103] 	lookupHopsSig:mean 	30.681818181818
scalar Network.dyn_peer[104] 	lookupTimeSig:mean 	5.084
scalar Network.dyn_peer[104] 	lookupStabilitySig:mean 	0.9432429412473
scalar Network.dyn_peer[104] 	lookupHopsSig:mean 	49.88
scalar Network.dyn_peer[105] 	lookupTimeSig:mean 	2.2941176470588
scalar Network.dyn_peer[105] 	lookupStabilitySig:mean 	0.92307033526766
scalar Network.dyn_peer[105] 	lookupHopsSig:mean 	22
scalar Network.dyn_peer[106] 	lookupTimeSig:mean 	3.3241379310345
scalar Network.dyn_peer[106] 	lookupStabilitySig:mean 	0.96151424831197
scalar Network.dyn_peer[106] 	lookupHopsSig:mean 	32.275862068966
scalar Network.dyn_peer[107] 	lookupTimeSig:mean 	3.4733333333333
scalar Network.dyn_peer[107] 	lookupStabilitySig:mean 	0.95614612498515
scalar Network.dyn_peer[107] 	lookupHopsSig:mean 	33.766666666667
scalar Network.dyn_peer[108] 	lookupTimeSig:mean 	2.747619047619
scalar Network.dyn_peer[108] 	lookupStabilitySig:mean 	0.93801876829405
scalar Network.dyn_peer[108] 	lookupHopsSig:mean 	26.52380952381
scalar Network.dyn_peer[109] 	lookupTimeSig:mean 	3.0371428571429
scalar Network.dyn_peer[109] 	lookupStabilitySig:mean 	0.96268338854757
scalar Network.dyn_peer[109] 	lookupHopsSig:mean 	29.4
scalar Network.dyn_peer[110] 	lookupTimeSig:mean 	3.1444444444444
scalar Network.dyn_peer[110] 	lookupStabilitySig:mean 	0.95587198120214
scalar Network.dyn_peer[110] 	lookupHopsSig:mean 	30.481481481481
scalar Network.dyn_peer[111] 	lookupTimeSig:mean 	3.9333333333333
scalar Network.dyn_peer[111] 	lookupStabilitySig:mean 	0.95159402738015
scalar Network.dyn_peer[111] 	lookupHopsSig:mean 	38.380952380952
scalar Network.dyn_peer[112] 	lookupTimeSig:mean 	2.692
scalar Network.dyn_peer[112] 	lookupStabilitySig:mean 	0.94704968433827
scalar Network.dyn_peer[112] 	lookupHopsSig:mean 	25.96
scalar Network.dyn_peer[113] 	lookupTimeSig:mean 	2.5421052631579
scalar Network.dyn_peer[113] 	lookupStabilitySig:mean 	0.93813510429371
scalar Network.dyn_peer[113] 	lookupHopsSig:mean 	24.473684210526
scalar Network.dyn_peer[114] 	lookupTimeSig:mean 	3.1894736842105
scalar Network.dyn_peer[114] 	lookupStabilitySig:mean 	0.93847845823161
scalar Network.dyn_peer[114] 	lookupHopsSig:mean 	30.947368421053
scalar Network.dyn_peer[115] 	lookupTimeSig:mean 	2.1727272727273
scalar Network.dyn_peer[115] 	lookupStabilitySig:mean 	0.93965776002204
scalar Network.dyn_peer[115] 	lookupHopsSig:mean 	20.818181818182
scalar Network.dyn_peer[116] 	lookupTimeSig:mean 	3.4363636363636
scalar Network.dyn_peer[116] 	lookupStabilitySig:mean 	0.92605365541848
scalar Network.dyn_peer[116] 	lookupHopsSig:mean 	33.454545454545
scalar Network.dyn_peer[117] 	lookupTimeSig:mean 	2.7588235294118
scalar Network.dyn_peer[117] 	lookupStabilitySig:mean 	0.93390541926355
scalar Network.dyn_peer[117] 	lookupHopsSig:mean 	26.647058823529
scalar Network.dyn_peer[118] 	lookupTimeSig:mean 	4.1448275862069
scalar Network.dyn_peer[118] 	lookupStabilitySig:mean 	0.96585072597874
scalar Network.dyn_peer[118] 	lookupHopsSig:mean 	40.48275862069
scalar Network.dyn_peer[119] 	lookupTimeSig:mean 	4.185
scalar Network.dyn_peer[119] 	lookupStabilitySig:mean 	0.95084498541837
scalar Network.dyn_peer[119] 	lookupHopsSig:mean 	40.9
scalar Network.dyn_peer[120] 	lookupTimeSig:mean 	2.4190476190476
scalar Network.dyn_peer[120] 	lookupStabilitySig:mean 	0.94469026671279
scalar Network.dyn_peer[120] 	lookupHopsSig:mean 	23.238095238095
scalar Network.dyn_peer[121] 	lookupTimeSig:mean 	3.6772727272727
scalar Network.dyn_peer[121] 	lookupStabilitySig:mean 	0.95043382444419
scalar Network.dyn_peer[121] 	lookupHopsSig:mean 	35.818181818182
scalar Network.dyn_peer[122] 	lookupTimeSig:mean 	2.655
scalar Network.dyn_peer[122] 	lookupStabilitySig:mean 	0.94972279698704
scalar Network.dyn_peer[122] 	lookupHopsSig:mean 	25.6
scalar Network.dyn_peer[123] 	lookupTimeSig:mean 	2.625
scalar Network.dyn_peer[123] 	lookupStabilitySig:mean 	0.96004711291088
scalar Network.dyn_peer[123] 	lookupHopsSig:mean 	25.285714285714
scalar Network.dyn_peer[124] 	lookupTimeSig:mean 	2.2631578947368
scalar Network.dyn_peer[124] 	lookupStabilitySig:mean 	0.93447744059622
scalar Network.dyn_peer[124] 	lookupHopsSig:mean 	21.684210526316
scalar Network.dyn_peer[125] 	lookupTimeSig:mean 	3.7318181818182
scalar Network.dyn_peer[125] 	lookupStabilitySig:mean 	0.94845710407985
scalar Network.dyn_peer[125] 	lookupHopsSig:mean 	36.363636363636
scalar Network.dyn_peer[126] 	lookupTimeSig:mean 	3.84
scalar Network.dyn_peer[126] 	lookupStabilitySig:mean 	0.95444629692473
scalar Network.dyn_peer[126] 	lookupHopsSig:mean 	37.44
scalar Network.dyn_peer[127] 	lookupTimeSig:mean 	3.2045454545455
scalar Network.dyn_peer[127] 	lookupStabilitySig:mean 	0.94884352092843
scalar Network.dyn_peer[127] 	lookupHopsSig:mean 	31.090909090909
scalar Network.dyn_peer[128] 	lookupTimeSig:mean 	3.24
scalar Network.dyn_peer[128] 	lookupStabilitySig:mean 	0.94143517035991
scalar Network.dyn_peer[128] 	lookupHopsSig:mean 	31.45
scalar Network.dyn_peer[129] 	lookupTimeSig:mean 	3.0636363636364
scalar Network.dyn_peer[129] 	lookupStabilitySig:mean 	0.95454381941818
scalar Network.dyn_peer[129] 	lookupHopsSig:mean 	29.681818181818
scalar Network.dyn_peer[130] 	lookupTimeSig:mean 	2.752380952381
scalar Network.dyn_peer[130] 	lookupStabilitySig:mean 	0.94410728499116
scalar Network.dyn_peer[130] 	lookupHopsSig:mean 	26.571428571429
scalar Network.dyn_peer[131] 	lookupTimeSig:mean 	3.8117647058824
scalar Network.dyn_peer[131] 	lookupStabilitySig:mean 	0.93814296245246
scalar Network.dyn_peer[131] 	lookupHopsSig:mean 	37.176470588235
scalar Network.dyn_peer[132] 	lookupTimeSig:mean 	3.3842105263158
scalar Network.dyn_peer[132] 	lookupStabilitySig:mean 	0.93880897147679
scalar Network.dyn_peer[132] 	lookupHopsSig:mean 	32.894736842105
scalar Network.dyn_peer[133] 	lookupTimeSig:mean 	2.8038461538462
scalar Network.dyn_peer[133] 	lookupStabilitySig:mean 	0.95641853112298
scalar Network.dyn_peer[133] 	lookupHopsSig:mean 	27.076923076923
scalar Network.dyn_peer[134] 	lookupTimeSig:mean 	2.324
scalar Network.dyn_peer[134] 	lookupStabilitySig:mean 	0.95452300568111
scalar Network.dyn_peer[134] 	lookupHopsSig:mean 	22.28
scalar Network.dyn_peer[135] 	lookupTimeSig:mean 	2.1785714285714
scalar Network.dyn_peer[135] 	lookupStabilitySig:mean 	0.93966695473396
scalar Network.dyn_peer[135] 	lookupHopsSig:mean 	20.857142857143
scalar Network.dyn_peer[136] 	lookupTimeSig:mean 	3.0428571428571
scalar Network.dyn_peer[136] 	lookupStabilitySig:mean 	0.92520989111758
scalar Network.dyn_peer[136] 	lookupHopsSig:mean 	29.5
scalar Network.dyn_peer[137] 	lookupTimeSig:mean 	1.625
scalar Network.dyn_peer[137] 	lookupStabilitySig:mean 	0.94616807252169
scalar Network.dyn_peer[137] 	lookupHopsSig:mean 	15.3
scalar Network.dyn_peer[138] 	lookupTimeSig:mean 	3.3782608695652
scalar Network.dyn_peer[138] 	lookupStabilitySig:mean 	0.95329039500844
scalar Network.dyn_peer[138] 	lookupHopsSig:mean 	32.826086956522
scalar Network.dyn_peer[139] 	lookupTimeSig:mean 	2.4521739130435
scalar Network.dyn_peer[139] 	lookupStabilitySig:mean 	0.95237850218647
scalar Network.dyn_peer[139] 	lookupHopsSig:mean 	23.565217391304
scalar Network.dyn_peer[140] 	lookupTimeSig:mean 	2.7923076923077
scalar Network.dyn_peer[140] 	lookupStabilitySig:mean 	0.93432873064795
scalar Network.dyn_peer[140] 	lookupHopsSig:mean 	27
scalar Network.dyn_peer[141] 	lookupTimeSig:mean 	3
scalar Network.dyn_peer[141] 	lookupStabilitySig:mean 	0.95407962719279
scalar Network.dyn_peer[141] 	lookupHopsSig:mean 	29.041666666667
scalar Network.dyn_peer[142] 	lookupTimeSig:mean 	4.43
scalar Network.dyn_peer[142] 	lookupStabilitySig:mean 	0.9658804157516
scalar Network.dyn_peer[142] 	lookupHopsSig:mean 	43.35
scalar Network.dyn_peer[143] 	lookupTimeSig:mean 	3.46
scalar Network.dyn_peer[143] 	lookupStabilitySig:mean 	0.96208992703352
scalar Network.dyn_peer[143] 	lookupHopsSig:mean 	33.64
scalar Network.dyn_peer[144] 	lookupTimeSig:mean 	3.1333333333333
scalar Network.dyn_peer[144] 	lookupStabilitySig:mean 	0.9035795320912
scalar Network.dyn_peer[144] 	lookupHopsSig:mean 	30.5
scalar Network.dyn_peer[145] 	lookupTimeSig:mean 	4.4294117647059
scalar Network.dyn_peer[145] 	lookupStabilitySig:mean 	0.95423196141115
scalar Network.dyn_peer[145] 	lookupHopsSig:mean 	43.352941176471
scalar Network.dyn_peer[146] 	lookupTimeSig:mean 	3.8857142857143
scalar Network.dyn_peer[146] 	lookupStabilitySig:mean 	0.96285467375336
scalar Network.dyn_peer[146] 	lookupHopsSig:mean 	37.904761904762
scalar Network.dyn_peer[147] 	lookupTimeSig:mean 	2.8277777777778
scalar Network.dyn_peer[147] 	lookupStabilitySig:mean 	0.95664244982052
scalar Network.dyn_peer[147] 	lookupHopsSig:mean 	27.333333333333
scalar Network.dyn_peer[148] 	lookupTimeSig:mean 	2.5428571428571
scalar Network.dyn_peer[148] 	lookupStabilitySig:mean 	0.9363445260429
scalar Network.dyn_peer[148] 	lookupHopsSig:mean 	24.5
scalar Network.dyn_peer[149] 	lookupTimeSig:mean 	4.0058823529412
scalar Network.dyn_peer[149] 	lookupStabilitySig:mean 	0.95261206828496
scalar Network.dyn_peer[149] 	lookupHopsSig:mean 	39.117647058824
scalar Network.dyn_peer[150] 	lookupTimeSig:mean 	4.595652173913
scalar Network.dyn_peer[150] 	lookupStabilitySig:mean 	0.94727890691517
scalar Network.dyn_peer[150] 	lookupHopsSig:mean 	45
scalar Network.dyn_peer[151] 	lookupTimeSig:mean 	3.1608695652174
scalar Network.dyn_peer[151] 	lookupStabilitySig:mean 	0.95582784057352
scalar Network.dyn_peer[151] 	lookupHopsSig:mean 	30.652173913043
scalar Network.dyn_peer[152] 	lookupTimeSig:mean 	4.48125
scalar Network.dyn_peer[152] 	lookupStabilitySig:mean 	0.94423773229937
scalar Network.dyn_peer[152] 	lookupHopsSig:mean 	43.875
scalar Network.dyn_peer[153] 	lookupTimeSig:mean 	2.5875
scalar Network.dyn_peer[153] 	lookupStabilitySig:mean 	0.95219741211622
scalar Network.dyn_peer[153] 	lookupHopsSig:mean 	24.9375
scalar Network.dyn_peer[154] 	lookupTimeSig:mean 	3.6266666666667
scalar Network.dyn_peer[154] 	lookupStabilitySig:mean 	0.94912274290497
scalar Network.dyn_peer[154] 	lookupHopsSig:mean 	35.333333333333
scalar Network.dyn_peer[155] 	lookupTimeSig:mean 	2.7083333333333
scalar Network.dyn_peer[155] 	lookupStabilitySig:mean 	0.95327905449085
scalar Network.dyn_peer[155] 	lookupHopsSig:mean 	26.125
scalar Network.dyn_peer[156] 	lookupTimeSig:mean 	1.9727272727273
scalar Network.dyn_peer[156] 	lookupStabilitySig:mean 	0.92021245014092
scalar Network.dyn_peer[156] 	lookupHopsSig:mean 	18.818181818182
scalar Network.dyn_peer[157] 	lookupTimeSig:mean 	2.6434782608696
scalar Network.dyn_peer[157] 	lookupStabilitySig:mean 	0.95442747867302
scalar Network.dyn_peer[157] 	lookupHopsSig:mean 	25.478260869565
scalar Network.dyn_peer[158] 	lookupTimeSig:mean 	3.0346153846154
scalar Network.dyn_peer[158] 	lookupStabilitySig:mean 	0.96343271567289
scalar Network.dyn_peer[158] 	lookupHopsSig:mean 	29.384615384615
scalar Network.dyn_peer[159] 	lookupTimeSig:mean 	3.6047619047619
scalar Network.dyn_peer[159] 	lookupStabilitySig:mean 	0.95692779556183
scalar Network.dyn_peer[159] 	lookupHopsSig:mean 	35.095238095238
scalar Network.dyn_peer[160] 	lookupTimeSig:mean 	2.495
scalar Network.dyn_peer[160] 	lookupStabilitySig:mean 	0.95400051191682
scalar Network.dyn_peer[160] 	lookupHopsSig:mean 	24
scalar Network.dyn_peer[161] 	lookupTimeSig:mean 	2.6055555555556
scalar Network.dyn_peer[161] 	lookupStabilitySig:mean 	0.94462824703401
scalar Network.dyn_peer[161] 	lookupHopsSig:mean 	25.111111111111
scalar Network.dyn_peer[162] 	lookupTimeSig:mean 	3.3647058823529
scalar Network.dyn_peer[162] 	lookupStabilitySig:mean 	0.94600973241305
scalar Network.dyn_peer[162] 	lookupHopsSig:mean 	32.705882352941
scalar Network.dyn_peer[163] 	lookupTimeSig:mean 	2.4769230769231
scalar Network.dyn_peer[163] 	lookupStabilitySig:mean 	0.93652500300847
scalar Network.dyn_peer[163] 	lookupHopsSig:mean 	23.846153846154
scalar Network.dyn_peer[164] 	lookupTimeSig:mean 	2.93
scalar Network.dyn_peer[164] 	lookupStabilitySig:mean 	0.949081164776
scalar Network.dyn_peer[164] 	lookupHopsSig:mean 	28.35
scalar Network.dyn_peer[165] 	lookupTimeSig:mean 	3.1214285714286
scalar Network.dyn_peer[165] 	lookupStabilitySig:mean 	0.95362748036028
scalar Network.dyn_peer[165] 	lookupHopsSig:mean 	30.285714285714
scalar Network.dyn_peer[166] 	lookupTimeSig:mean 	1.7714285714286
scalar Network.dyn_peer[166] 	lookupStabilitySig:mean 	0.94576268696359
scalar Network.dyn_peer[166] 	lookupHopsSig:mean 	16.785714285714
scalar Network.dyn_peer[167] 	lookupTimeSig:mean 	4.4689655172414
scalar Network.dyn_peer[167] 	lookupStabilitySig:mean 	0.96178515581414
scalar Network.dyn_peer[167] 	lookupHopsSig:mean 	43.724137931034
scalar Network.dyn_peer[168] 	lookupTimeSig:mean 	3.3217391304348
scalar Network.dyn_peer[168] 	lookupStabilitySig:mean 	0.95895985201882
scalar Network.dyn_peer[168] 	lookupHopsSig:mean 	32.260869565217
scalar Network.dyn_peer[169] 	lookupTimeSig:mean 	3.625
scalar Network.dyn_peer[169] 	lookupStabilitySig:mean 	0.95550182534498
scalar Network.dyn_peer[169] 	lookupHopsSig:mean 	35.3
scalar Network.dyn_peer[170] 	lookupTimeSig:mean 	3.0058823529412
scalar Network.dyn_peer[170] 	lookupStabilitySig:mean 	0.95914350941722
scalar Network.dyn_peer[170] 	lookupHopsSig:mean 	29.117647058824
scalar Network.dyn_peer[171] 	lookupTimeSig:mean 	4.075
scalar Network.dyn_peer[171] 	lookupStabilitySig:mean 	0.95805547640193
scalar Network.dyn_peer[171] 	lookupHopsSig:mean 	39.8
scalar Network.dyn_peer[172] 	lookupTimeSig:mean 	2.1733333333333
scalar Network.dyn_peer[172] 	lookupStabilitySig:mean 	0.94687120538826
scalar Network.dyn_peer[172] 	lookupHopsSig:mean 	20.8
scalar Network.dyn_peer[173] 	lookupTimeSig:mean 	3.0148148148148
scalar Network.dyn_peer[173] 	lookupStabilitySig:mean 	0.95965636139563
scalar Network.dyn_peer[173] 	lookupHopsSig:mean 	29.185185185185
scalar Network.dyn_peer[174] 	lookupTimeSig:mean 	2.7347826086957
scalar Network.dyn_peer[174] 	lookupStabilitySig:mean 	0.96463177780337
scalar Network.dyn_peer[174] 	lookupHopsSig:mean 	26.391304347826
scalar Network.dyn_peer[175] 	lookupTimeSig:mean 	2.3291666666667
scalar Network.dyn_peer[175] 	lookupStabilitySig:mean 	0.96033708112858
scalar Network.dyn_peer[175] 	lookupHopsSig:mean 	22.333333333333
scalar Network.dyn_peer[176] 	lookupTimeSig:mean 	3.2363636363636
scalar Network.dyn_peer[176] 	lookupStabilitySig:mean 	0.96322949320099
scalar Network.dyn_peer[176] 	lookupHopsSig:mean 	31.409090909091
scalar Network.dyn_peer[177] 	lookupTimeSig:mean 	3.8714285714286
scalar Network.dyn_peer[177] 	lookupStabilitySig:mean 	0.97388283117824
scalar Network.dyn_peer[177] 	lookupHopsSig:mean 	37.742857142857
scalar Network.dyn_peer[178] 	lookupTimeSig:mean 	3.9315789473684
scalar Network.dyn_peer[178] 	lookupStabilitySig:mean 	0.9574638371797
scalar Network.dyn_peer[178] 	lookupHopsSig:mean 	38.368421052632
scalar Network.dyn_peer[179] 	lookupTimeSig:mean 	4.0842105263158
scalar Network.dyn_peer[179] 	lookupStabilitySig:mean 	0.95772622718084
scalar Network.dyn_peer[179] 	lookupHopsSig:mean 	39.894736842105
scalar Network.dyn_peer[180] 	lookupTimeSig:mean 	3.485
scalar Network.dyn_peer[180] 	lookupStabilitySig:mean 	0.95824308544397
scalar Network.dyn_peer[180] 	lookupHopsSig:mean 	33.9
scalar Network.dyn_peer[181] 	lookupTimeSig:mean 	4.2681818181818
scalar Network.dyn_peer[181] 	lookupStabilitySig:mean 	0.96047639770603
scalar Network.dyn_peer[181] 	lookupHopsSig:mean 	41.727272727273
scalar Network.dyn_peer[182] 	lookupTimeSig:mean 	4.0095238095238
scalar Network.dyn_peer[182] 	lookupStabilitySig:mean 	0.96041914438164
scalar Network.dyn_peer[182] 	lookupHopsSig:mean 	39.142857142857
scalar Network.dyn_peer[183] 	lookupTimeSig:mean 	2.86
scalar Network.dyn_peer[183] 	lookupStabilitySig:mean 	0.94458651387443
scalar Network.dyn_peer[183] 	lookupHopsSig:mean 	27.666666666667
scalar Network.dyn_peer[184] 	lookupTimeSig:mean 	3.7533333333333
scalar Network.dyn_peer[184] 	lookupStabilitySig:mean 	0.94357049645235
scalar Network.dyn_peer[184] 	lookupHopsSig:mean 	36.6
scalar Network.dyn_peer[185] 	lookupTimeSig:mean 	4
scalar Network.dyn_peer[185] 	lookupStabilitySig:mean 	0.96067709452473
scalar Network.dyn_peer[185] 	lookupHopsSig:mean 	39.05
scalar Network.dyn_peer[186] 	lookupTimeSig:mean 	3.3571428571429
scalar Network.dyn_peer[186] 	lookupStabilitySig:mean 	0.94940151968261
scalar Network.dyn_peer[186] 	lookupHopsSig:mean 	32.619047619048
scalar Network.dyn_peer[187] 	lookupTimeSig:mean 	3.8285714285714
scalar Network.dyn_peer[187] 	lookupStabilitySig:mean 	0.95713130952347
scalar Network.dyn_peer[187] 	lookupHopsSig:mean 	37.333333333333
scalar Network.dyn_peer[188] 	lookupTimeSig:mean 	1.875
scalar Network.dyn_peer[188] 	lookupStabilitySig:mean 	0.95636647599167
scalar Network.dyn_peer[188] 	lookupHopsSig:mean 	17.8125
scalar Network.dyn_peer[189] 	lookupTimeSig:mean 	3.0142857142857
scalar Network.dyn_peer[189] 	lookupStabilitySig:mean 	0.95848822147985
scalar Network.dyn_peer[189] 	lookupHopsSig:mean 	29.214285714286
scalar Network.dyn_peer[190] 	lookupTimeSig:mean 	3.43
scalar Network.dyn_peer[190] 	lookupStabilitySig:mean 	0.95473306941567
scalar Network.dyn_peer[190] 	lookupHopsSig:mean 	33.35
scalar Network.dyn_peer[191] 	lookupTimeSig:mean 	3.4933333333333
scalar Network.dyn_peer[191] 	lookupStabilitySig:mean 	0.93804743712147
scalar Network.dyn_peer[191] 	lookupHopsSig:mean 	34
scalar Network.dyn_peer[192] 	lookupTimeSig:mean 	3.7896551724138
scalar Network.dyn_peer[192] 	lookupStabilitySig:mean 	0.96288105429568
scalar Network.dyn_peer[192] 	lookupHopsSig:mean 	36.931034482759
scalar Network.dyn_peer[193] 	lookupTimeSig:mean 	3.34375
scalar Network.dyn_peer[193] 	lookupStabilitySig:mean 	0.94939060957404
scalar Network.dyn_peer[193] 	lookupHopsSig:mean 	32.5
scalar Network.dyn_peer[194] 	lookupTimeSig:mean 	4.16
scalar Network.dyn_peer[194] 	lookupStabilitySig:mean 	0.96457300949066
scalar Network.dyn_peer[194] 	lookupHopsSig:mean 	40.666666666667
scalar Network.dyn_peer[195] 	lookupTimeSig:mean 	2.2357142857143
scalar Network.dyn_peer[195] 	lookupStabilitySig:mean 	0.95266056133966
scalar Network.dyn_peer[195] 	lookupHopsSig:mean 	21.428571428571
scalar Network.dyn_peer[196] 	lookupTimeSig:mean 	3.4277777777778
scalar Network.dyn_peer[196] 	lookupStabilitySig:mean 	0.95186320581059
scalar Network.dyn_peer[196] 	lookupHopsSig:mean 	33.333333333333
scalar Network.dyn_peer[197] 	lookupTimeSig:mean 	2.4578947368421
scalar Network.dyn_peer[197] 	lookupStabilitySig:mean 	0.95079864652239
scalar Network.dyn_peer[197] 	lookupHopsSig:mean 	23.631578947368
scalar Network.dyn_peer[198] 	lookupTimeSig:mean 	3.676
scalar Network.dyn_peer[198] 	lookupStabilitySig:mean 	0.96419548025355
scalar Network.dyn_peer[198] 	lookupHopsSig:mean 	35.8
scalar Network.dyn_peer[199] 	lookupTimeSig:mean 	3.2625
scalar Network.dyn_peer[199] 	lookupStabilitySig:mean 	0.96195146276538
scalar Network.dyn_peer[199] 	lookupHopsSig:mean 	31.666666666667
scalar Network.dyn_peer[200] 	lookupTimeSig:mean 	3.9769230769231
scalar Network.dyn_peer[200] 	lookupStabilitySig:mean 	0.94735586940526
scalar Network.dyn_peer[200] 	lookupHopsSig:mean 	38.846153846154
scalar Network.dyn_peer[201] 	lookupTimeSig:mean 	2.8333333333333
scalar Network.dyn_peer[201] 	lookupStabilitySig:mean 	0.94849286534979
scalar Network.dyn_peer[201] 	lookupHopsSig:mean 	27.388888888889
scalar Network.dyn_peer[202] 	lookupTimeSig:mean 	3.084
scalar Network.dyn_peer[202] 	lookupStabilitySig:mean 	0.96137367290445
scalar Network.dyn_peer[202] 	lookupHopsSig:mean 	29.88
scalar Network.dyn_peer[203] 	lookupTimeSig:mean 	3.3461538461538
scalar Network.dyn_peer[203] 	lookupStabilitySig:mean 	0.97050976635029
scalar Network.dyn_peer[203] 	lookupHopsSig:mean 	32.5
scalar Network.dyn_peer[204] 	lookupTimeSig:mean 	3.3866666666667
scalar Network.dyn_peer[204] 	lookupStabilitySig:mean 	0.95369492480531
scalar Network.dyn_peer[204] 	lookupHopsSig:mean 	32.933333333333
scalar Network.dyn_peer[205] 	lookupTimeSig:mean 	3.9631578947368
scalar Network.dyn_peer[205] 	lookupStabilitySig:mean 	0.95896810255209
scalar Network.dyn_peer[205] 	lookupHopsSig:mean 	38.684210526316
scalar Network.dyn_peer[206] 	lookupTimeSig:mean 	3.7473684210526
scalar Network.dyn_peer[206] 	lookupStabilitySig:mean 	0.96748986241016
scalar Network.dyn_peer[206] 	lookupHopsSig:mean 	36.526315789474
scalar Network.dyn_peer[207] 	lookupTimeSig:mean 	4.715
scalar Network.dyn_peer[207] 	lookupStabilitySig:mean 	0.96382142337388
scalar Network.dyn_peer[207] 	lookupHopsSig:mean 	46.2
scalar Network.dyn_peer[208] 	lookupTimeSig:mean 	4.565
scalar Network.dyn_peer[208] 	lookupStabilitySig:mean 	0.96366880084388
scalar Network.dyn_peer[208] 	lookupHopsSig:mean 	44.7
scalar Network.dyn_peer[209] 	lookupTimeSig:mean 	3.4590909090909
scalar Network.dyn_peer[209] 	lookupStabilitySig:mean 	0.95914128758225
scalar Network.dyn_peer[209] 	lookupHopsSig:mean 	33.636363636364
scalar Network.dyn_peer[210] 	lookupTimeSig:mean 	2.9375
scalar Network.dyn_peer[210] 	lookupStabilitySig:mean 	0.93230003066128
scalar Network.dyn_peer[210] 	lookupHopsSig:mean 	28.5
scalar Network.dyn_peer[211] 	lookupTimeSig:mean 	3.6809523809524
scalar Network.dyn_peer[211] 	lookupStabilitySig:mean 	0.95682425588547
scalar Network.dyn_peer[211] 	lookupHopsSig:mean 	35.857142857143
scalar Network.dyn_peer[212] 	lookupTimeSig:mean 	2.965
scalar Network.dyn_peer[212] 	lookupStabilitySig:mean 	0.95799258069601
scalar Network.dyn_peer[212] 	lookupHopsSig:mean 	28.7
scalar Network.dyn_peer[213] 	lookupTimeSig:mean 	3.3285714285714
scalar Network.dyn_peer[213] 	lookupStabilitySig:mean 	0.94777069975888
scalar Network.dyn_peer[213] 	lookupHopsSig:mean 	32.357142857143
scalar Network.dyn_peer[214] 	lookupTimeSig:mean 	1.58
scalar Network.dyn_peer[214] 	lookupStabilitySig:mean 	0.96747552307206
scalar Network.dyn_peer[214] 	lookupHopsSig:mean 	14.85
scalar Network.dyn_peer[215] 	lookupTimeSig:mean 	2.435
scalar Network.dyn_peer[215] 	lookupStabilitySig:mean 	0.96479285029927
scalar Network.dyn_peer[215] 	lookupHopsSig:mean 	23.4
scalar Network.dyn_peer[216] 	lookupTimeSig:mean 	4.3666666666667
scalar Network.dyn_peer[216] 	lookupStabilitySig:mean 	0.94769053806861
scalar Network.dyn_peer[216] 	lookupHopsSig:mean 	42.733333333333
scalar Network.dyn_peer[217] 	lookupTimeSig:mean 	3.5714285714286
scalar Network.dyn_peer[217] 	lookupStabilitySig:mean 	0.96938094199036
scalar Network.dyn_peer[217] 	lookupHopsSig:mean 	34.75
scalar Network.dyn_peer[218] 	lookupTimeSig:mean 	3.9727272727273
scalar Network.dyn_peer[218] 	lookupStabilitySig:mean 	0.94173903251067
scalar Network.dyn_peer[218] 	lookupHopsSig:mean 	38.818181818182
scalar Network.dyn_peer[219] 	lookupTimeSig:mean 	2.55
scalar Network.dyn_peer[219] 	lookupStabilitySig:mean 	0.95631862152368
scalar Network.dyn_peer[219] 	lookupHopsSig:mean 	24.5625
scalar Network.dyn_peer[220] 	lookupTimeSig:mean 	5.0181818181818
scalar Network.dyn_peer[220] 	lookupStabilitySig:mean 	0.94572714601897
scalar Network.dyn_peer[220] 	lookupHopsSig:mean 	49.272727272727
scalar Network.dyn_peer[221] 	lookupTimeSig:mean 	1.8846153846154
scalar Network.dyn_peer[221] 	lookupStabilitySig:mean 	0.94720466627489
scalar Network.dyn_peer[221] 	lookupHopsSig:mean 	17.923076923077
scalar Network.dyn_peer[222] 	lookupTimeSig:mean 	2.4888888888889
scalar Network.dyn_peer[222] 	lookupStabilitySig:mean 	0.9558918495766
scalar Network.dyn_peer[222] 	lookupHopsSig:mean 	23.944444444444
scalar Network.dyn_peer[223] 	lookupTimeSig:mean 	1.4352941176471
scalar Network.dyn_peer[223] 	lookupStabilitySig:mean 	0.9523882529534
scalar Network.dyn_peer[223] 	lookupHopsSig:mean 	13.411764705882
scalar Network.dyn_peer[224] 	lookupTimeSig:mean 	3.2944444444444
scalar Network.dyn_peer[224] 	lookupStabilitySig:mean 	0.95417828436217
scalar Network.dyn_peer[224] 	lookupHopsSig:mean 	32
scalar Network.dyn_peer[225] 	lookupTimeSig:mean 	2.325
scalar Network.dyn_peer[225] 	lookupStabilitySig:mean 	0.96326287003467
scalar Network.dyn_peer[225] 	lookupHopsSig:mean 	22.3125
scalar Network.dyn_peer[226] 	lookupTimeSig:mean 	4.2041666666667
scalar Network.dyn_peer[226] 	lookupStabilitySig:mean 	0.96931044551699
scalar Network.dyn_peer[226] 	lookupHopsSig:mean 	41.083333333333
scalar Network.dyn_peer[227] 	lookupTimeSig:mean 	3.97
scalar Network.dyn_peer[227] 	lookupStabilitySig:mean 	0.96208791192621
scalar Network.dyn_peer[227] 	lookupHopsSig:mean 	38.75
scalar Network.dyn_peer[228] 	lookupTimeSig:mean 	4.2130434782609
scalar Network.dyn_peer[228] 	lookupStabilitySig:mean 	0.96487337874967
scalar Network.dyn_peer[228] 	lookupHopsSig:mean 	41.173913043478
scalar Network.dyn_peer[229] 	lookupTimeSig:mean 	3.3214285714286
scalar Network.dyn_peer[229] 	lookupStabilitySig:mean 	0.96045092746083
scalar Network.dyn_peer[229] 	lookupHopsSig:mean 	32.285714285714
scalar Network.dyn_peer[230] 	lookupTimeSig:mean 	3.3
scalar Network.dyn_peer[230] 	lookupStabilitySig:mean 	0.96209553077214
scalar Network.dyn_peer[230] 	lookupHopsSig:mean 	32.058823529412
scalar Network.dyn_peer[231] 	lookupTimeSig:mean 	3.175
scalar Network.dyn_peer[231] 	lookupStabilitySig:mean 	0.95283611587365
scalar Network.dyn_peer[231] 	lookupHopsSig:mean 	30.8125
scalar Network.dyn_peer[232] 	lookupTimeSig:mean 	3.3708333333333
scalar Network.dyn_peer[232] 	lookupStabilitySig:mean 	0.96299273113254
scalar Network.dyn_peer[232] 	lookupHopsSig:mean 	32.75
scalar Network.dyn_peer[233] 	lookupTimeSig:mean 	2.8928571428571
scalar Network.dyn_peer[233] 	lookupStabilitySig:mean 	0.95154268740277
scalar Network.dyn_peer[233] 	lookupHopsSig:mean 	28
scalar Network.dyn_peer[234] 	lookupTimeSig:mean 	4.3416666666667
scalar Network.dyn_peer[234] 	lookupStabilitySig:mean 	0.96414622738909
scalar Network.dyn_peer[234] 	lookupHopsSig:mean 	42.458333333333
scalar Network.dyn_peer[235] 	lookupTimeSig:mean 	5.05
scalar Network.dyn_peer[235] 	lookupStabilitySig:mean 	0.88873465266079
scalar Network.dyn_peer[235] 	lookupHopsSig:mean 	49.75
scalar Network.dyn_peer[236] 	lookupTimeSig:mean 	4.504347826087
scalar Network.dyn_peer[236] 	lookupStabilitySig:mean 	0.96902131353019
scalar Network.dyn_peer[236] 	lookupHopsSig:mean 	44.086956521739
scalar Network.dyn_peer[237] 	lookupTimeSig:mean 	2.0916666666667
scalar Network.dyn_peer[237] 	lookupStabilitySig:mean 	0.96559373212707
scalar Network.dyn_peer[237] 	lookupHopsSig:mean 	19.958333333333
scalar Network.dyn_peer[238] 	lookupTimeSig:mean 	2.6625
scalar Network.dyn_peer[238] 	lookupStabilitySig:mean 	0.96465969628965
scalar Network.dyn_peer[238] 	lookupHopsSig:mean 	25.666666666667
scalar Network.dyn_peer[239] 	lookupTimeSig:mean 	3.4454545454545
scalar Network.dyn_peer[239] 	lookupStabilitySig:mean 	0.96010203977031
scalar Network.dyn_peer[239] 	lookupHopsSig:mean 	33.5
scalar Network.dyn_peer[240] 	lookupTimeSig:mean 	2.7214285714286
scalar Network.dyn_peer[240] 	lookupStabilitySig:mean 	0.94749410018059
scalar Network.dyn_peer[240] 	lookupHopsSig:mean 	26.285714285714
scalar Network.dyn_peer[241] 	lookupTimeSig:mean 	3
scalar Network.dyn_peer[241] 	lookupStabilitySig:mean 	0.97331069895465
scalar Network.dyn_peer[241] 	lookupHopsSig:mean 	29.028571428571
scalar Network.dyn_peer[242] 	lookupTimeSig:mean 	3.7181818181818
scalar Network.dyn_peer[242] 	lookupStabilitySig:mean 	0.95665068661963
scalar Network.dyn_peer[242] 	lookupHopsSig:mean 	36.272727272727
scalar Network.dyn_peer[243] 	lookupTimeSig:mean 	2.6333333333333
scalar Network.dyn_peer[243] 	lookupStabilitySig:mean 	0.97228706042774
scalar Network.dyn_peer[243] 	lookupHopsSig:mean 	25.388888888889
scalar Network.dyn_peer[244] 	lookupTimeSig:mean 	2.4703703703704
scalar Network.dyn_peer[244] 	lookupStabilitySig:mean 	0.96870179988306
scalar Network.dyn_peer[244] 	lookupHopsSig:mean 	23.740740740741
scalar Network.dyn_peer[245] 	lookupTimeSig:mean 	4.2285714285714
scalar Network.dyn_peer[245] 	lookupStabilitySig:mean 	0.95997811847233
scalar Network.dyn_peer[245] 	lookupHopsSig:mean 	41.333333333333
scalar Network.dyn_peer[246] 	lookupTimeSig:mean 	2.6705882352941
scalar Network.dyn_peer[246] 	lookupStabilitySig:mean 	0.96557782530127
scalar Network.dyn_peer[246] 	lookupHopsSig:mean 	25.764705882353
scalar Network.dyn_peer[247] 	lookupTimeSig:mean 	4.2521739130435
scalar Network.dyn_peer[247] 	lookupStabilitySig:mean 	0.96851496493606
scalar Network.dyn_peer[247] 	lookupHopsSig:mean 	41.565217391304
scalar Network.dyn_peer[248] 	lookupTimeSig:mean 	3.3137931034483
scalar Network.dyn_peer[248] 	lookupStabilitySig:mean 	0.97208329408173
scalar Network.dyn_peer[248] 	lookupHopsSig:mean 	32.172413793103
scalar Network.dyn_peer[249] 	lookupTimeSig:mean 	1.9545454545455
scalar Network.dyn_peer[249] 	lookupStabilitySig:mean 	0.96233474576994
scalar Network.dyn_peer[249] 	lookupHopsSig:mean 	18.590909090909
scalar Network.dyn_peer[250] 	lookupTimeSig:mean 	3.2708333333333
scalar Network.dyn_peer[250] 	lookupStabilitySig:mean 	0.97193980967859
scalar Network.dyn_peer[250] 	lookupHopsSig:mean 	31.75
scalar Network.dyn_peer[251] 	lookupTimeSig:mean 	4.0318181818182
scalar Network.dyn_peer[251] 	lookupStabilitySig:mean 	0.96709772782527
scalar Network.dyn_peer[251] 	lookupHopsSig:mean 	39.363636363636
scalar Network.dyn_peer[252] 	lookupTimeSig:mean 	3.6842105263158
scalar Network.dyn_peer[252] 	lookupStabilitySig:mean 	0.97130809440032
scalar Network.dyn_peer[252] 	lookupHopsSig:mean 	35.894736842105
scalar Network.dyn_peer[253] 	lookupTimeSig:mean 	2.49375
scalar Network.dyn_peer[253] 	lookupStabilitySig:mean 	0.96694427428884
scalar Network.dyn_peer[253] 	lookupHopsSig:mean 	24
scalar Network.dyn_peer[254] 	lookupTimeSig:mean 	3.3433333333333
scalar Network.dyn_peer[254] 	lookupStabilitySig:mean 	0.9694990437245
scalar Network.dyn_peer[254] 	lookupHopsSig:mean 	32.466666666667
scalar Network.dyn_peer[255] 	lookupTimeSig:mean 	3.2826086956522
scalar Network.dyn_peer[255] 	lookupStabilitySig:mean 	0.9622562448646
scalar Network.dyn_peer[255] 	lookupHopsSig:mean 	31.869565217391
scalar Network.dyn_peer[256] 	lookupTimeSig:mean 	3.4185185185185
scalar Network.dyn_peer[256] 	lookupStabilitySig:mean 	0.96978364187224
scalar Network.dyn_peer[256] 	lookupHopsSig:mean 	33.222222222222
scalar Network.dyn_peer[257] 	lookupTimeSig:mean 	2.6428571428571
scalar Network.dyn_peer[257] 	lookupStabilitySig:mean 	0.97627619795634
scalar Network.dyn_peer[257] 	lookupHopsSig:mean 	25.457142857143
scalar Network.dyn_peer[258] 	lookupTimeSig:mean 	3.3347826086957
scalar Network.dyn_peer[258] 	lookupStabilitySig:mean 	0.96515273896005
scalar Network.dyn_peer[258] 	lookupHopsSig:mean 	32.391304347826
scalar Network.dyn_peer[259] 	lookupTimeSig:mean 	4.0294117647059
scalar Network.dyn_peer[259] 	lookupStabilitySig:mean 	0.9503779343932
scalar Network.dyn_peer[259] 	lookupHopsSig:mean 	39.352941176471
scalar Network.dyn_peer[260] 	lookupTimeSig:mean 	1.7375
scalar Network.dyn_peer[260] 	lookupStabilitySig:mean 	0.9546055754181
scalar Network.dyn_peer[260] 	lookupHopsSig:mean 	16.5
scalar Network.dyn_peer[261] 	lookupTimeSig:mean 	3.0846153846154
scalar Network.dyn_peer[261] 	lookupStabilitySig:mean 	0.94651336018712
scalar Network.dyn_peer[261] 	lookupHopsSig:mean 	29.923076923077
scalar Network.dyn_peer[262] 	lookupTimeSig:mean 	4.0619047619048
scalar Network.dyn_peer[262] 	lookupStabilitySig:mean 	0.96350187629772
scalar Network.dyn_peer[262] 	lookupHopsSig:mean 	39.666666666667
scalar Network.dyn_peer[263] 	lookupTimeSig:mean 	4.368
scalar Network.dyn_peer[263] 	lookupStabilitySig:mean 	0.96910937664565
scalar Network.dyn_peer[263] 	lookupHopsSig:mean 	42.72
scalar Network.dyn_peer[264] 	lookupTimeSig:mean 	2.85
scalar Network.dyn_peer[264] 	lookupStabilitySig:mean 	0.962763665698
scalar Network.dyn_peer[264] 	lookupHopsSig:mean 	27.55
scalar Network.dyn_peer[265] 	lookupTimeSig:mean 	2.8
scalar Network.dyn_peer[265] 	lookupStabilitySig:mean 	0.96952448205557
scalar Network.dyn_peer[265] 	lookupHopsSig:mean 	27.05
scalar Network.dyn_peer[266] 	lookupTimeSig:mean 	4.075
scalar Network.dyn_peer[266] 	lookupStabilitySig:mean 	0.96652189581655
scalar Network.dyn_peer[266] 	lookupHopsSig:mean 	39.8
scalar Network.dyn_peer[267] 	lookupTimeSig:mean 	3.2666666666667
scalar Network.dyn_peer[267] 	lookupStabilitySig:mean 	0.95568418658028
scalar Network.dyn_peer[267] 	lookupHopsSig:mean 	31.722222222222
scalar Network.dyn_peer[268] 	lookupTimeSig:mean 	2.5555555555556
scalar Network.dyn_peer[268] 	lookupStabilitySig:mean 	0.96934144855132
scalar Network.dyn_peer[268] 	lookupHopsSig:mean 	24.592592592593
scalar Network.dyn_peer[269] 	lookupTimeSig:mean 	3.312
scalar Network.dyn_peer[269] 	lookupStabilitySig:mean 	0.96960095831659
scalar Network.dyn_peer[269] 	lookupHopsSig:mean 	32.16
scalar Network.dyn_peer[270] 	lookupTimeSig:mean 	3.1818181818182
scalar Network.dyn_peer[270] 	lookupStabilitySig:mean 	0.96759698552672
scalar Network.dyn_peer[270] 	lookupHopsSig:mean 	30.863636363636
scalar Network.dyn_peer[271] 	lookupTimeSig:mean 	3.59
scalar Network.dyn_peer[271] 	lookupStabilitySig:mean 	0.96141916317865
scalar Network.dyn_peer[271] 	lookupHopsSig:mean 	34.95
scalar Network.dyn_peer[272] 	lookupTimeSig:mean 	3.24
scalar Network.dyn_peer[272] 	lookupStabilitySig:mean 	0.96205042594423
scalar Network.dyn_peer[272] 	lookupHopsSig:mean 	31.466666666667
scalar Network.dyn_peer[273] 	lookupTimeSig:mean 	3.5333333333333
scalar Network.dyn_peer[273] 	lookupStabilitySig:mean 	0.95287569499245
scalar Network.dyn_peer[273] 	lookupHopsSig:mean 	34.416666666667
scalar Network.dyn_peer[274] 	lookupTimeSig:mean 	2.9407407407407
scalar Network.dyn_peer[274] 	lookupStabilitySig:mean 	0.97013872320208
scalar Network.dyn_peer[274] 	lookupHopsSig:mean 	28.444444444444
scalar Network.dyn_peer[275] 	lookupTimeSig:mean 	2.4090909090909
scalar Network.dyn_peer[275] 	lookupStabilitySig:mean 	0.96822152303701
scalar Network.dyn_peer[275] 	lookupHopsSig:mean 	23.136363636364
scalar Network.dyn_peer[276] 	lookupTimeSig:mean 	3.995652173913
scalar Network.dyn_peer[276] 	lookupStabilitySig:mean 	0.97157993742629
scalar Network.dyn_peer[276] 	lookupHopsSig:mean 	39
scalar Network.dyn_peer[277] 	lookupTimeSig:mean 	2.6333333333333
scalar Network.dyn_peer[277] 	lookupStabilitySig:mean 	0.9642800641466
scalar Network.dyn_peer[277] 	lookupHopsSig:mean 	25.388888888889
scalar Network.dyn_peer[278] 	lookupTimeSig:mean 	3.6666666666667
scalar Network.dyn_peer[278] 	lookupStabilitySig:mean 	0.97090257969857
scalar Network.dyn_peer[278] 	lookupHopsSig:mean 	35.703703703704
scalar Network.dyn_peer[279] 	lookupTimeSig:mean 	2.3478260869565
scalar Network.dyn_peer[279] 	lookupStabilitySig:mean 	0.96906797043756
scalar Network.dyn_peer[279] 	lookupHopsSig:mean 	22.521739130435
scalar Network.dyn_peer[280] 	lookupTimeSig:mean 	3.8941176470588
scalar Network.dyn_peer[280] 	lookupStabilitySig:mean 	0.96159433154389
scalar Network.dyn_peer[280] 	lookupHopsSig:mean 	38
scalar Network.dyn_peer[281] 	lookupTimeSig:mean 	2.5727272727273
scalar Network.dyn_peer[281] 	lookupStabilitySig:mean 	0.96786977995229
scalar Network.dyn_peer[281] 	lookupHopsSig:mean 	24.772727272727
scalar Network.dyn_peer[282] 	lookupTimeSig:mean 	2.93125
scalar Network.dyn_peer[282] 	lookupStabilitySig:mean 	0.95261743478477
scalar Network.dyn_peer[282] 	lookupHopsSig:mean 	28.375
scalar Network.dyn_peer[283] 	lookupTimeSig:mean 	2.0705882352941
scalar Network.dyn_peer[283] 	lookupStabilitySig:mean 	0.95969017781317
scalar Network.dyn_peer[283] 	lookupHopsSig:mean 	19.764705882353
scalar Network.dyn_peer[284] 	lookupTimeSig:mean 	3.13
scalar Network.dyn_peer[284] 	lookupStabilitySig:mean 	0.96129721443867
scalar Network.dyn_peer[284] 	lookupHopsSig:mean 	30.35
scalar Network.dyn_peer[285] 	lookupTimeSig:mean 	3.04
scalar Network.dyn_peer[285] 	lookupStabilitySig:mean 	0.95834285273838
scalar Network.dyn_peer[285] 	lookupHopsSig:mean 	29.466666666667
scalar Network.dyn_peer[286] 	lookupTimeSig:mean 	2.6529411764706
scalar Network.dyn_peer[286] 	lookupStabilitySig:mean 	0.95808023644392
scalar Network.dyn_peer[286] 	lookupHopsSig:mean 	25.588235294118
scalar Network.dyn_peer[287] 	lookupTimeSig:mean 	3.796
scalar Network.dyn_peer[287] 	lookupStabilitySig:mean 	0.96815544517711
scalar Network.dyn_peer[287] 	lookupHopsSig:mean 	37
scalar Network.dyn_peer[288] 	lookupTimeSig:mean 	3.9863636363636
scalar Network.dyn_peer[288] 	lookupStabilitySig:mean 	0.96900926230856
scalar Network.dyn_peer[288] 	lookupHopsSig:mean 	38.909090909091
scalar Network.dyn_peer[289] 	lookupTimeSig:mean 	3.415
scalar Network.dyn_peer[289] 	lookupStabilitySig:mean 	0.97289666363504
scalar Network.dyn_peer[289] 	lookupHopsSig:mean 	33.2
scalar Network.dyn_peer[290] 	lookupTimeSig:mean 	4.415
scalar Network.dyn_peer[290] 	lookupStabilitySig:mean 	0.95958871368493
scalar Network.dyn_peer[290] 	lookupHopsSig:mean 	43.2
scalar Network.dyn_peer[291] 	lookupTimeSig:mean 	1.6571428571429
scalar Network.dyn_peer[291] 	lookupStabilitySig:mean 	0.9685396958209
scalar Network.dyn_peer[291] 	lookupHopsSig:mean 	15.642857142857
scalar Network.dyn_peer[292] 	lookupTimeSig:mean 	3.2923076923077
scalar Network.dyn_peer[292] 	lookupStabilitySig:mean 	0.97348756194473
scalar Network.dyn_peer[292] 	lookupHopsSig:mean 	31.961538461538
scalar Network.dyn_peer[293] 	lookupTimeSig:mean 	3.0962962962963
scalar Network.dyn_peer[293] 	lookupStabilitySig:mean 	0.97041031334515
scalar Network.dyn_peer[293] 	lookupHopsSig:mean 	30
scalar Network.dyn_peer[294] 	lookupTimeSig:mean 	3.3791666666667
scalar Network.dyn_peer[294] 	lookupStabilitySig:mean 	0.97516669071532
scalar Network.dyn_peer[294] 	lookupHopsSig:mean 	32.833333333333
scalar Network.dyn_peer[295] 	lookupTimeSig:mean 	4.245
scalar Network.dyn_peer[295] 	lookupStabilitySig:mean 	0.96442142361775
scalar Network.dyn_peer[295] 	lookupHopsSig:mean 	41.5
scalar Network.dyn_peer[296] 	lookupTimeSig:mean 	4.0173913043478
scalar Network.dyn_peer[296] 	lookupStabilitySig:mean 	0.97502499140556
scalar Network.dyn_peer[296] 	lookupHopsSig:mean 	39.217391304348
scalar Network.dyn_peer[297] 	lookupTimeSig:mean 	3.25
scalar Network.dyn_peer[297] 	lookupStabilitySig:mean 	0.96849619841669
scalar Network.dyn_peer[297] 	lookupHopsSig:mean 	31.541666666667
scalar Network.dyn_peer[298] 	lookupTimeSig:mean 	3.6555555555556
scalar Network.dyn_peer[298] 	lookupStabilitySig:mean 	0.97358477449355
scalar Network.dyn_peer[298] 	lookupHopsSig:mean 	35.611111111111
scalar Network.dyn_peer[299] 	lookupTimeSig:mean 	2.676
scalar Network.dyn_peer[299] 	lookupStabilitySig:mean 	0.97280938642798
scalar Network.dyn_peer[299] 	lookupHopsSig:mean 	25.8
scalar Network.dyn_peer[300] 	lookupTimeSig:mean 	5.44
scalar Network.dyn_peer[300] 	lookupStabilitySig:mean 	0.96245682454901
scalar Network.dyn_peer[300] 	lookupHopsSig:mean 	53.45
scalar Network.dyn_peer[301] 	lookupTimeSig:mean 	3.6384615384615
scalar Network.dyn_peer[301] 	lookupStabilitySig:mean 	0.97145802213345
scalar Network.dyn_peer[301] 	lookupHopsSig:mean 	35.423076923077
scalar Network.dyn_peer[302] 	lookupTimeSig:mean 	2.9105263157895
scalar Network.dyn_peer[302] 	lookupStabilitySig:mean 	0.96545233528473
scalar Network.dyn_peer[302] 	lookupHopsSig:mean 	28.157894736842
scalar Network.dyn_peer[303] 	lookupTimeSig:mean 	3.6833333333333
scalar Network.dyn_peer[303] 	lookupStabilitySig:mean 	0.95567355233167
scalar Network.dyn_peer[303] 	lookupHopsSig:mean 	35.916666666667
scalar Network.dyn_peer[304] 	lookupTimeSig:mean 	2.0571428571429
scalar Network.dyn_peer[304] 	lookupStabilitySig:mean 	0.95232739884939
scalar Network.dyn_peer[304] 	lookupHopsSig:mean 	19.642857142857
scalar Network.dyn_peer[305] 	lookupTimeSig:mean 	4.9266666666667
scalar Network.dyn_peer[305] 	lookupStabilitySig:mean 	0.9661734308737
scalar Network.dyn_peer[305] 	lookupHopsSig:mean 	48.333333333333
scalar Network.dyn_peer[306] 	lookupTimeSig:mean 	4.1466666666667
scalar Network.dyn_peer[306] 	lookupStabilitySig:mean 	0.95059997371087
scalar Network.dyn_peer[306] 	lookupHopsSig:mean 	40.533333333333
scalar Network.dyn_peer[307] 	lookupTimeSig:mean 	3.7
scalar Network.dyn_peer[307] 	lookupStabilitySig:mean 	0.96242187046705
scalar Network.dyn_peer[307] 	lookupHopsSig:mean 	36.055555555556
scalar Network.dyn_peer[308] 	lookupTimeSig:mean 	3.0555555555556
scalar Network.dyn_peer[308] 	lookupStabilitySig:mean 	0.97710248223437
scalar Network.dyn_peer[308] 	lookupHopsSig:mean 	29.592592592593
scalar Network.dyn_peer[309] 	lookupTimeSig:mean 	4.2052631578947
scalar Network.dyn_peer[309] 	lookupStabilitySig:mean 	0.9726098716308
scalar Network.dyn_peer[309] 	lookupHopsSig:mean 	41.105263157895
scalar Network.dyn_peer[310] 	lookupTimeSig:mean 	3.6958333333333
scalar Network.dyn_peer[310] 	lookupStabilitySig:mean 	0.96788043162087
scalar Network.dyn_peer[310] 	lookupHopsSig:mean 	36
scalar Network.dyn_peer[311] 	lookupTimeSig:mean 	5.0038461538462
scalar Network.dyn_peer[311] 	lookupStabilitySig:mean 	0.97556936631624
scalar Network.dyn_peer[311] 	lookupHopsSig:mean 	49.076923076923
scalar Network.dyn_peer[312] 	lookupTimeSig:mean 	3.8538461538462
scalar Network.dyn_peer[312] 	lookupStabilitySig:mean 	0.95510736347821
scalar Network.dyn_peer[312] 	lookupHopsSig:mean 	37.615384615385
scalar Network.dyn_peer[313] 	lookupTimeSig:mean 	1.875
scalar Network.dyn_peer[313] 	lookupStabilitySig:mean 	0.95904091035482
scalar Network.dyn_peer[313] 	lookupHopsSig:mean 	17.875
scalar Network.dyn_peer[314] 	lookupTimeSig:mean 	2.5789473684211
scalar Network.dyn_peer[314] 	lookupStabilitySig:mean 	0.96789487240542
scalar Network.dyn_peer[314] 	lookupHopsSig:mean 	24.842105263158
scalar Network.dyn_peer[315] 	lookupTimeSig:mean 	2.5833333333333
scalar Network.dyn_peer[315] 	lookupStabilitySig:mean 	0.96443614403769
scalar Network.dyn_peer[315] 	lookupHopsSig:mean 	24.888888888889
scalar Network.dyn_peer[316] 	lookupTimeSig:mean 	2.42
scalar Network.dyn_peer[316] 	lookupStabilitySig:mean 	0.95288613806479
scalar Network.dyn_peer[316] 	lookupHopsSig:mean 	23.3
scalar Network.dyn_peer[317] 	lookupTimeSig:mean 	3.9142857142857
scalar Network.dyn_peer[317] 	lookupStabilitySig:mean 	0.96600849242393
scalar Network.dyn_peer[317] 	lookupHopsSig:mean 	38.190476190476
scalar Network.dyn_peer[318] 	lookupTimeSig:mean 	3.75625
scalar Network.dyn_peer[318] 	lookupStabilitySig:mean 	0.97785862325691
scalar Network.dyn_peer[318] 	lookupHopsSig:mean 	36.59375
scalar Network.dyn_peer[319] 	lookupTimeSig:mean 	2.9769230769231
scalar Network.dyn_peer[319] 	lookupStabilitySig:mean 	0.95742444883889
scalar Network.dyn_peer[319] 	lookupHopsSig:mean 	28.846153846154
scalar Network.dyn_peer[320] 	lookupTimeSig:mean 	2.74375
scalar Network.dyn_peer[320] 	lookupStabilitySig:mean 	0.96867418583133
scalar Network.dyn_peer[320] 	lookupHopsSig:mean 	26.5
scalar Network.dyn_peer[321] 	lookupTimeSig:mean 	2.9230769230769
scalar Network.dyn_peer[321] 	lookupStabilitySig:mean 	0.96796568782212
scalar Network.dyn_peer[321] 	lookupHopsSig:mean 	28.307692307692
scalar Network.dyn_peer[322] 	lookupTimeSig:mean 	2.985
scalar Network.dyn_peer[322] 	lookupStabilitySig:mean 	0.97295998289483
scalar Network.dyn_peer[322] 	lookupHopsSig:mean 	28.9
scalar Network.dyn_peer[323] 	lookupTimeSig:mean 	3.4272727272727
scalar Network.dyn_peer[323] 	lookupStabilitySig:mean 	0.96751916156658
scalar Network.dyn_peer[323] 	lookupHopsSig:mean 	33.318181818182
scalar Network.dyn_peer[324] 	lookupTimeSig:mean 	2.5875
scalar Network.dyn_peer[324] 	lookupStabilitySig:mean 	0.95965385076124
scalar Network.dyn_peer[324] 	lookupHopsSig:mean 	25
scalar Network.dyn_peer[325] 	lookupTimeSig:mean 	2.65
scalar Network.dyn_peer[325] 	lookupStabilitySig:mean 	0.96847867326707
scalar Network.dyn_peer[325] 	lookupHopsSig:mean 	25.555555555556
scalar Network.dyn_peer[326] 	lookupTimeSig:mean 	2.84375
scalar Network.dyn_peer[326] 	lookupStabilitySig:mean 	0.96850440331036
scalar Network.dyn_peer[326] 	lookupHopsSig:mean 	27.5
scalar Network.dyn_peer[327] 	lookupTimeSig:mean 	2.925
scalar Network.dyn_peer[327] 	lookupStabilitySig:mean 	0.97167245149224
scalar Network.dyn_peer[327] 	lookupHopsSig:mean 	28.291666666667
scalar Network.dyn_peer[328] 	lookupTimeSig:mean 	2.25
scalar Network.dyn_peer[328] 	lookupStabilitySig:mean 	0.96928976250347
scalar Network.dyn_peer[328] 	lookupHopsSig:mean 	21.55
scalar Network.dyn_peer[329] 	lookupTimeSig:mean 	3.4588235294118
scalar Network.dyn_peer[329] 	lookupStabilitySig:mean 	0.96755775672329
scalar Network.dyn_peer[329] 	lookupHopsSig:mean 	33.647058823529
scalar Network.dyn_peer[330] 	lookupTimeSig:mean 	4.6083333333333
scalar Network.dyn_peer[330] 	lookupStabilitySig:mean 	0.96225558834461
scalar Network.dyn_peer[330] 	lookupHopsSig:mean 	45.166666666667
scalar Network.dyn_peer[331] 	lookupTimeSig:mean 	2.2333333333333
scalar Network.dyn_peer[331] 	lookupStabilitySig:mean 	0.96211384397207
scalar Network.dyn_peer[331] 	lookupHopsSig:mean 	21.388888888889
scalar Network.dyn_peer[332] 	lookupTimeSig:mean 	3.1153846153846
scalar Network.dyn_peer[332] 	lookupStabilitySig:mean 	0.97100612246252
scalar Network.dyn_peer[332] 	lookupHopsSig:mean 	30.230769230769
scalar Network.dyn_peer[333] 	lookupTimeSig:mean 	3.09
scalar Network.dyn_peer[333] 	lookupStabilitySig:mean 	0.97617651812034
scalar Network.dyn_peer[333] 	lookupHopsSig:mean 	29.933333333333
scalar Network.dyn_peer[334] 	lookupTimeSig:mean 	2.1307692307692
scalar Network.dyn_peer[334] 	lookupStabilitySig:mean 	0.95774478300994
scalar Network.dyn_peer[334] 	lookupHopsSig:mean 	20.384615384615
scalar Network.dyn_peer[335] 	lookupTimeSig:mean 	4.52
scalar Network.dyn_peer[335] 	lookupStabilitySig:mean 	0.9628782279091
scalar Network.dyn_peer[335] 	lookupHopsSig:mean 	44.25
scalar Network.dyn_peer[336] 	lookupTimeSig:mean 	2.5631578947368
scalar Network.dyn_peer[336] 	lookupStabilitySig:mean 	0.9677293415022
scalar Network.dyn_peer[336] 	lookupHopsSig:mean 	24.684210526316
scalar Network.dyn_peer[337] 	lookupTimeSig:mean 	3.6380952380952
scalar Network.dyn_peer[337] 	lookupStabilitySig:mean 	0.97248676619936
scalar Network.dyn_peer[337] 	lookupHopsSig:mean 	35.428571428571
scalar Network.dyn_peer[338] 	lookupTimeSig:mean 	3.63
scalar Network.dyn_peer[338] 	lookupStabilitySig:mean 	0.96893258941709
scalar Network.dyn_peer[338] 	lookupHopsSig:mean 	35.35
scalar Network.dyn_peer[339] 	lookupTimeSig:mean 	3.0894736842105
scalar Network.dyn_peer[339] 	lookupStabilitySig:mean 	0.96272980380117
scalar Network.dyn_peer[339] 	lookupHopsSig:mean 	29.947368421053
scalar Network.dyn_peer[340] 	lookupTimeSig:mean 	4.3
scalar Network.dyn_peer[340] 	lookupStabilitySig:mean 	0.95759751045933
scalar Network.dyn_peer[340] 	lookupHopsSig:mean 	42.076923076923
scalar Network.dyn_peer[341] 	lookupTimeSig:mean 	2.38
scalar Network.dyn_peer[341] 	lookupStabilitySig:mean 	0.97300014628563
scalar Network.dyn_peer[341] 	lookupHopsSig:mean 	22.84
scalar Network.dyn_peer[342] 	lookupTimeSig:mean 	4.105
scalar Network.dyn_peer[342] 	lookupStabilitySig:mean 	0.9663705841027
scalar Network.dyn_peer[342] 	lookupHopsSig:mean 	40.1
scalar Network.dyn_peer[343] 	lookupTimeSig:mean 	4.2142857142857
scalar Network.dyn_peer[343] 	lookupStabilitySig:mean 	0.97255313757341
scalar Network.dyn_peer[343] 	lookupHopsSig:mean 	41.190476190476
scalar Network.dyn_peer[344] 	lookupTimeSig:mean 	2.4105263157895
scalar Network.dyn_peer[344] 	lookupStabilitySig:mean 	0.96537968811677
scalar Network.dyn_peer[344] 	lookupHopsSig:mean 	23.157894736842
scalar Network.dyn_peer[345] 	lookupTimeSig:mean 	3.2166666666667
scalar Network.dyn_peer[345] 	lookupStabilitySig:mean 	0.96773206489161
scalar Network.dyn_peer[345] 	lookupHopsSig:mean 	31.222222222222
scalar Network.dyn_peer[346] 	lookupTimeSig:mean 	3.4105263157895
scalar Network.dyn_peer[346] 	lookupStabilitySig:mean 	0.96583971784965
scalar Network.dyn_peer[346] 	lookupHopsSig:mean 	33.157894736842
scalar Network.dyn_peer[347] 	lookupTimeSig:mean 	3.34
scalar Network.dyn_peer[347] 	lookupStabilitySig:mean 	0.97523240929469
scalar Network.dyn_peer[347] 	lookupHopsSig:mean 	32.44
scalar Network.dyn_peer[348] 	lookupTimeSig:mean 	2.4588235294118
scalar Network.dyn_peer[348] 	lookupStabilitySig:mean 	0.97893915185705
scalar Network.dyn_peer[348] 	lookupHopsSig:mean 	23.647058823529
scalar Network.dyn_peer[349] 	lookupTimeSig:mean 	4
scalar Network.dyn_peer[349] 	lookupStabilitySig:mean 	0.97720658782594
scalar Network.dyn_peer[349] 	lookupHopsSig:mean 	39.037037037037
scalar Network.dyn_peer[350] 	lookupTimeSig:mean 	3.8375
scalar Network.dyn_peer[350] 	lookupStabilitySig:mean 	0.96118184557417
scalar Network.dyn_peer[350] 	lookupHopsSig:mean 	37.4375
scalar Network.dyn_peer[351] 	lookupTimeSig:mean 	3.7416666666667
scalar Network.dyn_peer[351] 	lookupStabilitySig:mean 	0.98202405871901
scalar Network.dyn_peer[351] 	lookupHopsSig:mean 	36.5
scalar Network.dyn_peer[352] 	lookupTimeSig:mean 	2.5076923076923
scalar Network.dyn_peer[352] 	lookupStabilitySig:mean 	0.97402537626644
scalar Network.dyn_peer[352] 	lookupHopsSig:mean 	24.153846153846
scalar Network.dyn_peer[353] 	lookupTimeSig:mean 	2.1105263157895
scalar Network.dyn_peer[353] 	lookupStabilitySig:mean 	0.97033577204045
scalar Network.dyn_peer[353] 	lookupHopsSig:mean 	20.157894736842
scalar Network.dyn_peer[354] 	lookupTimeSig:mean 	3.6047619047619
scalar Network.dyn_peer[354] 	lookupStabilitySig:mean 	0.96756188407363
scalar Network.dyn_peer[354] 	lookupHopsSig:mean 	35.095238095238
scalar Network.dyn_peer[355] 	lookupTimeSig:mean 	3.1238095238095
scalar Network.dyn_peer[355] 	lookupStabilitySig:mean 	0.97164098633498
scalar Network.dyn_peer[355] 	lookupHopsSig:mean 	30.285714285714
scalar Network.dyn_peer[356] 	lookupTimeSig:mean 	2.06
scalar Network.dyn_peer[356] 	lookupStabilitySig:mean 	0.95674884412438
scalar Network.dyn_peer[356] 	lookupHopsSig:mean 	19.7
scalar Network.dyn_peer[357] 	lookupTimeSig:mean 	3.4666666666667
scalar Network.dyn_peer[357] 	lookupStabilitySig:mean 	0.95481615479415
scalar Network.dyn_peer[357] 	lookupHopsSig:mean 	33.733333333333
scalar Network.dyn_peer[358] 	lookupTimeSig:mean 	3.5954545454545
scalar Network.dyn_peer[358] 	lookupStabilitySig:mean 	0.97163931240158
scalar Network.dyn_peer[358] 	lookupHopsSig:mean 	35
scalar Network.dyn_peer[359] 	lookupTimeSig:mean 	2.9964285714286
scalar Network.dyn_peer[359] 	lookupStabilitySig:mean 	0.97510699504346
scalar Network.dyn_peer[359] 	lookupHopsSig:mean 	29
scalar Network.dyn_peer[360] 	lookupTimeSig:mean 	4.1619047619048
scalar Network.dyn_peer[360] 	lookupStabilitySig:mean 	0.96984942147641
scalar Network.dyn_peer[360] 	lookupHopsSig:mean 	40.666666666667
scalar Network.dyn_peer[361] 	lookupTimeSig:mean 	2.6368421052632
scalar Network.dyn_peer[361] 	lookupStabilitySig:mean 	0.9694000470305
scalar Network.dyn_peer[361] 	lookupHopsSig:mean 	25.421052631579
scalar Network.dyn_peer[362] 	lookupTimeSig:mean 	4.5954545454545
scalar Network.dyn_peer[362] 	lookupStabilitySig:mean 	0.97331481425896
scalar Network.dyn_peer[362] 	lookupHopsSig:mean 	45
scalar Network.dyn_peer[363] 	lookupTimeSig:mean 	3.836
scalar Network.dyn_peer[363] 	lookupStabilitySig:mean 	0.97549133688677
scalar Network.dyn_peer[363] 	lookupHopsSig:mean 	37.4
scalar Network.dyn_peer[364] 	lookupTimeSig:mean 	1.525
scalar Network.dyn_peer[364] 	lookupStabilitySig:mean 	0.91746895527467
scalar Network.dyn_peer[364] 	lookupHopsSig:mean 	14.5
scalar Network.dyn_peer[365] 	lookupTimeSig:mean 	3.8117647058824
scalar Network.dyn_peer[365] 	lookupStabilitySig:mean 	0.97218313347548
scalar Network.dyn_peer[365] 	lookupHopsSig:mean 	37.176470588235
scalar Network.dyn_peer[366] 	lookupTimeSig:mean 	3.85
scalar Network.dyn_peer[366] 	lookupStabilitySig:mean 	0.97354184600732
scalar Network.dyn_peer[366] 	lookupHopsSig:mean 	37.555555555556
scalar Network.dyn_peer[367] 	lookupTimeSig:mean 	4.4916666666667
scalar Network.dyn_peer[367] 	lookupStabilitySig:mean 	0.9577496322648
scalar Network.dyn_peer[367] 	lookupHopsSig:mean 	44
scalar Network.dyn_peer[368] 	lookupTimeSig:mean 	4.6
scalar Network.dyn_peer[368] 	lookupStabilitySig:mean 	0.96937688427385
scalar Network.dyn_peer[368] 	lookupHopsSig:mean 	45.045454545455
scalar Network.dyn_peer[369] 	lookupTimeSig:mean 	3.4928571428571
scalar Network.dyn_peer[369] 	lookupStabilitySig:mean 	0.96721167253729
scalar Network.dyn_peer[369] 	lookupHopsSig:mean 	34
scalar Network.dyn_peer[370] 	lookupTimeSig:mean 	3.7944444444444
scalar Network.dyn_peer[370] 	lookupStabilitySig:mean 	0.97055600330027
scalar Network.dyn_peer[370] 	lookupHopsSig:mean 	37
scalar Network.dyn_peer[371] 	lookupTimeSig:mean 	3.0571428571429
scalar Network.dyn_peer[371] 	lookupStabilitySig:mean 	0.96242697004761
scalar Network.dyn_peer[371] 	lookupHopsSig:mean 	29.642857142857
scalar Network.dyn_peer[372] 	lookupTimeSig:mean 	3.575
scalar Network.dyn_peer[372] 	lookupStabilitySig:mean 	0.96299770440964
scalar Network.dyn_peer[372] 	lookupHopsSig:mean 	34.8125
scalar Network.dyn_peer[373] 	lookupTimeSig:mean 	4.025
scalar Network.dyn_peer[373] 	lookupStabilitySig:mean 	0.97336116373481
scalar Network.dyn_peer[373] 	lookupHopsSig:mean 	39.3125
scalar Network.dyn_peer[374] 	lookupTimeSig:mean 	4.0157894736842
scalar Network.dyn_peer[374] 	lookupStabilitySig:mean 	0.9680687594105
scalar Network.dyn_peer[374] 	lookupHopsSig:mean 	39.210526315789
scalar Network.dyn_peer[375] 	lookupTimeSig:mean 	3.5214285714286
scalar Network.dyn_peer[375] 	lookupStabilitySig:mean 	0.97002255856725
scalar Network.dyn_peer[375] 	lookupHopsSig:mean 	34.285714285714
scalar Network.dyn_peer[376] 	lookupTimeSig:mean 	3.5045454545455
scalar Network.dyn_peer[376] 	lookupStabilitySig:mean 	0.98521410001823
scalar Network.dyn_peer[376] 	lookupHopsSig:mean 	34.090909090909
scalar Network.dyn_peer[377] 	lookupTimeSig:mean 	2.9555555555556
scalar Network.dyn_peer[377] 	lookupStabilitySig:mean 	0.97973149819127
scalar Network.dyn_peer[377] 	lookupHopsSig:mean 	28.592592592593
scalar Network.dyn_peer[378] 	lookupTimeSig:mean 	2.9
scalar Network.dyn_peer[378] 	lookupStabilitySig:mean 	0.97095943331286
scalar Network.dyn_peer[378] 	lookupHopsSig:mean 	28.071428571429
scalar Network.dyn_peer[379] 	lookupTimeSig:mean 	3.2739130434783
scalar Network.dyn_peer[379] 	lookupStabilitySig:mean 	0.97045400631412
scalar Network.dyn_peer[379] 	lookupHopsSig:mean 	31.782608695652
scalar Network.dyn_peer[380] 	lookupTimeSig:mean 	2.7125
scalar Network.dyn_peer[380] 	lookupStabilitySig:mean 	0.96213193179574
scalar Network.dyn_peer[380] 	lookupHopsSig:mean 	26.1875
scalar Network.dyn_peer[381] 	lookupTimeSig:mean 	3.9058823529412
scalar Network.dyn_peer[381] 	lookupStabilitySig:mean 	0.96683998482631
scalar Network.dyn_peer[381] 	lookupHopsSig:mean 	38.117647058824
scalar Network.dyn_peer[382] 	lookupTimeSig:mean 	3.6423076923077
scalar Network.dyn_peer[382] 	lookupStabilitySig:mean 	0.97925436910233
scalar Network.dyn_peer[382] 	lookupHopsSig:mean 	35.461538461538
scalar Network.dyn_peer[383] 	lookupTimeSig:mean 	5.0428571428571
scalar Network.dyn_peer[383] 	lookupStabilitySig:mean 	0.96556314746184
scalar Network.dyn_peer[383] 	lookupHopsSig:mean 	49.5
scalar Network.dyn_peer[384] 	lookupTimeSig:mean 	2.1571428571429
scalar Network.dyn_peer[384] 	lookupStabilitySig:mean 	0.97473384291377
scalar Network.dyn_peer[384] 	lookupHopsSig:mean 	20.619047619048
scalar Network.dyn_peer[385] 	lookupTimeSig:mean 	3.56875
scalar Network.dyn_peer[385] 	lookupStabilitySig:mean 	0.96319021537784
scalar Network.dyn_peer[385] 	lookupHopsSig:mean 	34.75
scalar Network.dyn_peer[386] 	lookupTimeSig:mean 	3.9823529411765
scalar Network.dyn_peer[386] 	lookupStabilitySig:mean 	0.97393355426817
scalar Network.dyn_peer[386] 	lookupHopsSig:mean 	38.882352941176
scalar Network.dyn_peer[387] 	lookupTimeSig:mean 	3.0222222222222
scalar Network.dyn_peer[387] 	lookupStabilitySig:mean 	0.96413820192619
scalar Network.dyn_peer[387] 	lookupHopsSig:mean 	29.277777777778
scalar Network.dyn_peer[388] 	lookupTimeSig:mean 	3.2653846153846
scalar Network.dyn_peer[388] 	lookupStabilitySig:mean 	0.97584275672069
scalar Network.dyn_peer[388] 	lookupHopsSig:mean 	31.692307692308
scalar Network.dyn_peer[389] 	lookupTimeSig:mean 	2.3666666666667
scalar Network.dyn_peer[389] 	lookupStabilitySig:mean 	0.95117813353944
scalar Network.dyn_peer[389] 	lookupHopsSig:mean 	22.777777777778
scalar Network.dyn_peer[390] 	lookupTimeSig:mean 	3.0304347826087
scalar Network.dyn_peer[390] 	lookupStabilitySig:mean 	0.97097618881937
scalar Network.dyn_peer[390] 	lookupHopsSig:mean 	29.347826086957
scalar Network.dyn_peer[391] 	lookupTimeSig:mean 	1.48
scalar Network.dyn_peer[391] 	lookupStabilitySig:mean 	0.95940856798552
scalar Network.dyn_peer[391] 	lookupHopsSig:mean 	13.9
scalar Network.dyn_peer[392] 	lookupTimeSig:mean 	3.9176470588235
scalar Network.dyn_peer[392] 	lookupStabilitySig:mean 	0.96506889501367
scalar Network.dyn_peer[392] 	lookupHopsSig:mean 	38.235294117647
scalar Network.dyn_peer[393] 	lookupTimeSig:mean 	4.2421052631579
scalar Network.dyn_peer[393] 	lookupStabilitySig:mean 	0.96924046556906
scalar Network.dyn_peer[393] 	lookupHopsSig:mean 	41.473684210526
scalar Network.dyn_peer[394] 	lookupTimeSig:mean 	4.1583333333333
scalar Network.dyn_peer[394] 	lookupStabilitySig:mean 	0.95791463550025
scalar Network.dyn_peer[394] 	lookupHopsSig:mean 	40.666666666667
scalar Network.dyn_peer[395] 	lookupTimeSig:mean 	3.73
scalar Network.dyn_peer[395] 	lookupStabilitySig:mean 	0.95274449083954
scalar Network.dyn_peer[395] 	lookupHopsSig:mean 	36.4
scalar Network.dyn_peer[396] 	lookupTimeSig:mean 	3.0769230769231
scalar Network.dyn_peer[396] 	lookupStabilitySig:mean 	0.95678822796505
scalar Network.dyn_peer[396] 	lookupHopsSig:mean 	29.846153846154
scalar Network.dyn_peer[397] 	lookupTimeSig:mean 	3.9346153846154
scalar Network.dyn_peer[397] 	lookupStabilitySig:mean 	0.9726821859994
scalar Network.dyn_peer[397] 	lookupHopsSig:mean 	38.384615384615
scalar Network.dyn_peer[398] 	lookupTimeSig:mean 	4.3
scalar Network.dyn_peer[398] 	lookupStabilitySig:mean 	0.96452536263193
scalar Network.dyn_peer[398] 	lookupHopsSig:mean 	42.066666666667
scalar Network.dyn_peer[399] 	lookupTimeSig:mean 	3.6652173913043
scalar Network.dyn_peer[399] 	lookupStabilitySig:mean 	0.96922744423627
scalar Network.dyn_peer[399] 	lookupHopsSig:mean 	35.695652173913
scalar Network.dyn_peer[400] 	lookupTimeSig:mean 	3.6035714285714
scalar Network.dyn_peer[400] 	lookupStabilitySig:mean 	0.97617175716212
scalar Network.dyn_peer[400] 	lookupHopsSig:mean 	35.071428571429
scalar Network.dyn_peer[401] 	lookupTimeSig:mean 	3.2631578947368
scalar Network.dyn_peer[401] 	lookupStabilitySig:mean 	0.97330571755179
scalar Network.dyn_peer[401] 	lookupHopsSig:mean 	31.684210526316
scalar Network.dyn_peer[402] 	lookupTimeSig:mean 	3.5
scalar Network.dyn_peer[402] 	lookupStabilitySig:mean 	0.96352870291209
scalar Network.dyn_peer[402] 	lookupHopsSig:mean 	34.058823529412
scalar Network.dyn_peer[403] 	lookupTimeSig:mean 	3.5411764705882
scalar Network.dyn_peer[403] 	lookupStabilitySig:mean 	0.96595251442426
scalar Network.dyn_peer[403] 	lookupHopsSig:mean 	34.470588235294
scalar Network.dyn_peer[404] 	lookupTimeSig:mean 	3.63
scalar Network.dyn_peer[404] 	lookupStabilitySig:mean 	0.97346626749495
scalar Network.dyn_peer[404] 	lookupHopsSig:mean 	35.35
[...]
scalar Network.dyn_peer[9899] 	lookupHopsSig:mean 	56.111111111111
scalar Network.dyn_peer[9900] 	lookupTimeSig:mean 	7.8
scalar Network.dyn_peer[9900] 	lookupStabilitySig:mean 	0.99087721814534
scalar Network.dyn_peer[9900] 	lookupHopsSig:mean 	77.142857142857
scalar Network.dyn_peer[9901] 	lookupTimeSig:mean 	6.7
scalar Network.dyn_peer[9901] 	lookupStabilitySig:mean 	0.99237672187155
scalar Network.dyn_peer[9901] 	lookupHopsSig:mean 	66.1
scalar Network.dyn_peer[9902] 	lookupTimeSig:mean 	4.5
scalar Network.dyn_peer[9902] 	lookupStabilitySig:mean 	0.99433207328963
scalar Network.dyn_peer[9902] 	lookupHopsSig:mean 	44.142857142857
scalar Network.dyn_peer[9903] 	lookupTimeSig:mean 	7.2923076923077
scalar Network.dyn_peer[9903] 	lookupStabilitySig:mean 	0.99203573224636
scalar Network.dyn_peer[9903] 	lookupHopsSig:mean 	72
scalar Network.dyn_peer[9904] 	lookupTimeSig:mean 	6.35
scalar Network.dyn_peer[9904] 	lookupStabilitySig:mean 	0.9912863150239
scalar Network.dyn_peer[9904] 	lookupHopsSig:mean 	63
scalar Network.dyn_peer[9905] 	lookupTimeSig:mean 	3.7833333333333
scalar Network.dyn_peer[9905] 	lookupStabilitySig:mean 	0.99509443459101
scalar Network.dyn_peer[9905] 	lookupHopsSig:mean 	37
scalar Network.dyn_peer[9906] 	lookupTimeSig:mean 	4.2636363636364
scalar Network.dyn_peer[9906] 	lookupStabilitySig:mean 	0.99492145896974
scalar Network.dyn_peer[9906] 	lookupHopsSig:mean 	41.727272727273
scalar Network.dyn_peer[9907] 	lookupTimeSig:mean 	3.4
scalar Network.dyn_peer[9907] 	lookupStabilitySig:mean 	0.99549662523593
scalar Network.dyn_peer[9907] 	lookupHopsSig:mean 	33.166666666667
scalar Network.dyn_peer[9908] 	lookupTimeSig:mean 	2.4714285714286
scalar Network.dyn_peer[9908] 	lookupStabilitySig:mean 	0.99671469632137
scalar Network.dyn_peer[9908] 	lookupHopsSig:mean 	23.857142857143
scalar Network.dyn_peer[9909] 	lookupTimeSig:mean 	6.5625
scalar Network.dyn_peer[9909] 	lookupStabilitySig:mean 	0.99227815726772
scalar Network.dyn_peer[9909] 	lookupHopsSig:mean 	64.75
scalar Network.dyn_peer[9910] 	lookupTimeSig:mean 	4.0714285714286
scalar Network.dyn_peer[9910] 	lookupStabilitySig:mean 	0.99480768712237
scalar Network.dyn_peer[9910] 	lookupHopsSig:mean 	39.857142857143
scalar Network.dyn_peer[9911] 	lookupTimeSig:mean 	4.2454545454545
scalar Network.dyn_peer[9911] 	lookupStabilitySig:mean 	0.99494276038075
scalar Network.dyn_peer[9911] 	lookupHopsSig:mean 	41.545454545455
scalar Network.dyn_peer[9912] 	lookupTimeSig:mean 	4.5142857142857
scalar Network.dyn_peer[9912] 	lookupStabilitySig:mean 	0.99431564500888
scalar Network.dyn_peer[9912] 	lookupHopsSig:mean 	44.285714285714
scalar Network.dyn_peer[9913] 	lookupTimeSig:mean 	6.43125
scalar Network.dyn_peer[9913] 	lookupStabilitySig:mean 	0.99304803012637
scalar Network.dyn_peer[9913] 	lookupHopsSig:mean 	63.375
scalar Network.dyn_peer[9914] 	lookupTimeSig:mean 	6.025
scalar Network.dyn_peer[9914] 	lookupStabilitySig:mean 	0.99297358128388
scalar Network.dyn_peer[9914] 	lookupHopsSig:mean 	59.375
scalar Network.dyn_peer[9915] 	lookupTimeSig:mean 	6.8285714285714
scalar Network.dyn_peer[9915] 	lookupStabilitySig:mean 	0.99202101355019
scalar Network.dyn_peer[9915] 	lookupHopsSig:mean 	67.428571428571
scalar Network.dyn_peer[9916] 	lookupTimeSig:mean 	5.2714285714286
scalar Network.dyn_peer[9916] 	lookupStabilitySig:mean 	0.99351991332618
scalar Network.dyn_peer[9916] 	lookupHopsSig:mean 	51.857142857143
scalar Network.dyn_peer[9917] 	lookupTimeSig:mean 	5.7333333333333
scalar Network.dyn_peer[9917] 	lookupStabilitySig:mean 	0.9923958828828
scalar Network.dyn_peer[9917] 	lookupHopsSig:mean 	56.666666666667
scalar Network.dyn_peer[9918] 	lookupTimeSig:mean 	5.4666666666667
scalar Network.dyn_peer[9918] 	lookupStabilitySig:mean 	0.99262520003443
scalar Network.dyn_peer[9918] 	lookupHopsSig:mean 	54
scalar Network.dyn_peer[9919] 	lookupTimeSig:mean 	3.2461538461538
scalar Network.dyn_peer[9919] 	lookupStabilitySig:mean 	0.99609595237752
scalar Network.dyn_peer[9919] 	lookupHopsSig:mean 	31.538461538462
scalar Network.dyn_peer[9920] 	lookupTimeSig:mean 	4.9571428571429
scalar Network.dyn_peer[9920] 	lookupStabilitySig:mean 	0.99383972565244
scalar Network.dyn_peer[9920] 	lookupHopsSig:mean 	48.714285714286
scalar Network.dyn_peer[9921] 	lookupTimeSig:mean 	7.5466666666667
scalar Network.dyn_peer[9921] 	lookupStabilitySig:mean 	0.99193724521707
scalar Network.dyn_peer[9921] 	lookupHopsSig:mean 	74.533333333333
scalar Network.dyn_peer[9922] 	lookupTimeSig:mean 	4.85
scalar Network.dyn_peer[9922] 	lookupStabilitySig:mean 	0.99386349669658
scalar Network.dyn_peer[9922] 	lookupHopsSig:mean 	47.666666666667
scalar Network.dyn_peer[9923] 	lookupTimeSig:mean 	5.66
scalar Network.dyn_peer[9923] 	lookupStabilitySig:mean 	0.99283284256235
scalar Network.dyn_peer[9923] 	lookupHopsSig:mean 	55.8
scalar Network.dyn_peer[9924] 	lookupTimeSig:mean 	4.5333333333333
scalar Network.dyn_peer[9924] 	lookupStabilitySig:mean 	0.99380250740796
scalar Network.dyn_peer[9924] 	lookupHopsSig:mean 	44.666666666667
scalar Network.dyn_peer[9925] 	lookupTimeSig:mean 	4.5
scalar Network.dyn_peer[9925] 	lookupStabilitySig:mean 	0.99437337202003
scalar Network.dyn_peer[9925] 	lookupHopsSig:mean 	44.142857142857
scalar Network.dyn_peer[9926] 	lookupTimeSig:mean 	4.0571428571429
scalar Network.dyn_peer[9926] 	lookupStabilitySig:mean 	0.99484786146786
scalar Network.dyn_peer[9926] 	lookupHopsSig:mean 	39.714285714286
scalar Network.dyn_peer[9927] 	lookupTimeSig:mean 	4.2
scalar Network.dyn_peer[9927] 	lookupStabilitySig:mean 	0.99521441232258
scalar Network.dyn_peer[9927] 	lookupHopsSig:mean 	41.066666666667
scalar Network.dyn_peer[9928] 	lookupTimeSig:mean 	5.5230769230769
scalar Network.dyn_peer[9928] 	lookupStabilitySig:mean 	0.99377646476317
scalar Network.dyn_peer[9928] 	lookupHopsSig:mean 	54.307692307692
scalar Network.dyn_peer[9929] 	lookupTimeSig:mean 	6.0571428571429
scalar Network.dyn_peer[9929] 	lookupStabilitySig:mean 	0.99271290336869
scalar Network.dyn_peer[9929] 	lookupHopsSig:mean 	59.714285714286
scalar Network.dyn_peer[9930] 	lookupTimeSig:mean 	5.2857142857143
scalar Network.dyn_peer[9930] 	lookupStabilitySig:mean 	0.99348474174206
scalar Network.dyn_peer[9930] 	lookupHopsSig:mean 	52
scalar Network.dyn_peer[9931] 	lookupTimeSig:mean 	7.1
scalar Network.dyn_peer[9931] 	lookupStabilitySig:mean 	0.99066843123486
scalar Network.dyn_peer[9931] 	lookupHopsSig:mean 	70.333333333333
scalar Network.dyn_peer[9932] 	lookupTimeSig:mean 	4.4272727272727
scalar Network.dyn_peer[9932] 	lookupStabilitySig:mean 	0.99476602709513
scalar Network.dyn_peer[9932] 	lookupHopsSig:mean 	43.363636363636
scalar Network.dyn_peer[9933] 	lookupTimeSig:mean 	5.4571428571429
scalar Network.dyn_peer[9933] 	lookupStabilitySig:mean 	0.99330650615905
scalar Network.dyn_peer[9933] 	lookupHopsSig:mean 	53.714285714286
scalar Network.dyn_peer[9934] 	lookupTimeSig:mean 	4.65
scalar Network.dyn_peer[9934] 	lookupStabilitySig:mean 	0.99379214260262
scalar Network.dyn_peer[9934] 	lookupHopsSig:mean 	45.75
scalar Network.dyn_peer[9935] 	lookupTimeSig:mean 	4.1571428571429
scalar Network.dyn_peer[9935] 	lookupStabilitySig:mean 	0.99473815550196
scalar Network.dyn_peer[9935] 	lookupHopsSig:mean 	40.714285714286
scalar Network.dyn_peer[9936] 	lookupTimeSig:mean 	3.3
scalar Network.dyn_peer[9936] 	lookupStabilitySig:mean 	0.99548032466555
scalar Network.dyn_peer[9936] 	lookupHopsSig:mean 	32.25
scalar Network.dyn_peer[9937] 	lookupTimeSig:mean 	5.5
scalar Network.dyn_peer[9937] 	lookupStabilitySig:mean 	0.99241243163124
scalar Network.dyn_peer[9937] 	lookupHopsSig:mean 	54.5
scalar Network.dyn_peer[9938] 	lookupTimeSig:mean 	5.6222222222222
scalar Network.dyn_peer[9938] 	lookupStabilitySig:mean 	0.99338192836795
scalar Network.dyn_peer[9938] 	lookupHopsSig:mean 	55.333333333333
scalar Network.dyn_peer[9939] 	lookupTimeSig:mean 	6.8333333333333
scalar Network.dyn_peer[9939] 	lookupStabilitySig:mean 	0.99255226416426
scalar Network.dyn_peer[9939] 	lookupHopsSig:mean 	67.416666666667
scalar Network.dyn_peer[9940] 	lookupTimeSig:mean 	6.63
scalar Network.dyn_peer[9940] 	lookupStabilitySig:mean 	0.99247721106512
scalar Network.dyn_peer[9940] 	lookupHopsSig:mean 	65.4
scalar Network.dyn_peer[9941] 	lookupTimeSig:mean 	8.1571428571429
scalar Network.dyn_peer[9941] 	lookupStabilitySig:mean 	0.9905448041058
scalar Network.dyn_peer[9941] 	lookupHopsSig:mean 	80.714285714286
scalar Network.dyn_peer[9942] 	lookupTimeSig:mean 	5.56
scalar Network.dyn_peer[9942] 	lookupStabilitySig:mean 	0.99291937872767
scalar Network.dyn_peer[9942] 	lookupHopsSig:mean 	54.8
scalar Network.dyn_peer[9943] 	lookupTimeSig:mean 	6.6777777777778
scalar Network.dyn_peer[9943] 	lookupStabilitySig:mean 	0.99231200357382
scalar Network.dyn_peer[9943] 	lookupHopsSig:mean 	65.888888888889
scalar Network.dyn_peer[9944] 	lookupTimeSig:mean 	6.6
scalar Network.dyn_peer[9944] 	lookupStabilitySig:mean 	0.99131445431461
scalar Network.dyn_peer[9944] 	lookupHopsSig:mean 	65.333333333333
scalar Network.dyn_peer[9945] 	lookupTimeSig:mean 	9.0142857142857
scalar Network.dyn_peer[9945] 	lookupStabilitySig:mean 	0.9897291221922
scalar Network.dyn_peer[9945] 	lookupHopsSig:mean 	89.285714285714
scalar Network.dyn_peer[9946] 	lookupTimeSig:mean 	3.9375
scalar Network.dyn_peer[9946] 	lookupStabilitySig:mean 	0.99510097369784
scalar Network.dyn_peer[9946] 	lookupHopsSig:mean 	38.5
scalar Network.dyn_peer[9947] 	lookupTimeSig:mean 	6.13
scalar Network.dyn_peer[9947] 	lookupStabilitySig:mean 	0.99296568578575
scalar Network.dyn_peer[9947] 	lookupHopsSig:mean 	60.4
scalar Network.dyn_peer[9948] 	lookupTimeSig:mean 	6.55
scalar Network.dyn_peer[9948] 	lookupStabilitySig:mean 	0.99231645083637
scalar Network.dyn_peer[9948] 	lookupHopsSig:mean 	64.625
scalar Network.dyn_peer[9949] 	lookupTimeSig:mean 	6.9090909090909
scalar Network.dyn_peer[9949] 	lookupStabilitySig:mean 	0.9922853871037
scalar Network.dyn_peer[9949] 	lookupHopsSig:mean 	68.181818181818
scalar Network.dyn_peer[9950] 	lookupTimeSig:mean 	5.44
scalar Network.dyn_peer[9950] 	lookupStabilitySig:mean 	0.99373094520997
scalar Network.dyn_peer[9950] 	lookupHopsSig:mean 	53.5
scalar Network.dyn_peer[9951] 	lookupTimeSig:mean 	6.025
scalar Network.dyn_peer[9951] 	lookupStabilitySig:mean 	0.99219272809569
scalar Network.dyn_peer[9951] 	lookupHopsSig:mean 	59.5
scalar Network.dyn_peer[9952] 	lookupTimeSig:mean 	6.9555555555556
scalar Network.dyn_peer[9952] 	lookupStabilitySig:mean 	0.99210360084867
scalar Network.dyn_peer[9952] 	lookupHopsSig:mean 	68.666666666667
scalar Network.dyn_peer[9953] 	lookupTimeSig:mean 	5.6538461538462
scalar Network.dyn_peer[9953] 	lookupStabilitySig:mean 	0.9936820748083
scalar Network.dyn_peer[9953] 	lookupHopsSig:mean 	55.615384615385
scalar Network.dyn_peer[9954] 	lookupTimeSig:mean 	4.6714285714286
scalar Network.dyn_peer[9954] 	lookupStabilitySig:mean 	0.99417522822374
scalar Network.dyn_peer[9954] 	lookupHopsSig:mean 	45.857142857143
scalar Network.dyn_peer[9955] 	lookupTimeSig:mean 	4.9285714285714
scalar Network.dyn_peer[9955] 	lookupStabilitySig:mean 	0.99389215638595
scalar Network.dyn_peer[9955] 	lookupHopsSig:mean 	48.428571428571
scalar Network.dyn_peer[9956] 	lookupTimeSig:mean 	7.9071428571429
scalar Network.dyn_peer[9956] 	lookupStabilitySig:mean 	0.99169770481863
scalar Network.dyn_peer[9956] 	lookupHopsSig:mean 	78.142857142857
scalar Network.dyn_peer[9957] 	lookupTimeSig:mean 	5.3375
scalar Network.dyn_peer[9957] 	lookupStabilitySig:mean 	0.99360654572956
scalar Network.dyn_peer[9957] 	lookupHopsSig:mean 	52.5
scalar Network.dyn_peer[9958] 	lookupTimeSig:mean 	6.36
scalar Network.dyn_peer[9958] 	lookupStabilitySig:mean 	0.99276088082697
scalar Network.dyn_peer[9958] 	lookupHopsSig:mean 	62.7
scalar Network.dyn_peer[9959] 	lookupTimeSig:mean 	3.9333333333333
scalar Network.dyn_peer[9959] 	lookupStabilitySig:mean 	0.99516697200791
scalar Network.dyn_peer[9959] 	lookupHopsSig:mean 	38.444444444444
scalar Network.dyn_peer[9960] 	lookupTimeSig:mean 	5.4583333333333
scalar Network.dyn_peer[9960] 	lookupStabilitySig:mean 	0.99380458086186
scalar Network.dyn_peer[9960] 	lookupHopsSig:mean 	53.666666666667
scalar Network.dyn_peer[9961] 	lookupTimeSig:mean 	6.3444444444444
scalar Network.dyn_peer[9961] 	lookupStabilitySig:mean 	0.99267775993536
scalar Network.dyn_peer[9961] 	lookupHopsSig:mean 	62.555555555556
scalar Network.dyn_peer[9962] 	lookupTimeSig:mean 	4.8142857142857
scalar Network.dyn_peer[9962] 	lookupStabilitySig:mean 	0.99457180014204
scalar Network.dyn_peer[9962] 	lookupHopsSig:mean 	47.214285714286
scalar Network.dyn_peer[9963] 	lookupTimeSig:mean 	5.25
scalar Network.dyn_peer[9963] 	lookupStabilitySig:mean 	0.99344608176034
scalar Network.dyn_peer[9963] 	lookupHopsSig:mean 	51.666666666667
scalar Network.dyn_peer[9964] 	lookupTimeSig:mean 	4.6
scalar Network.dyn_peer[9964] 	lookupStabilitySig:mean 	0.99375498325874
scalar Network.dyn_peer[9964] 	lookupHopsSig:mean 	45.333333333333
scalar Network.dyn_peer[9965] 	lookupTimeSig:mean 	5.2909090909091
scalar Network.dyn_peer[9965] 	lookupStabilitySig:mean 	0.99390773387329
scalar Network.dyn_peer[9965] 	lookupHopsSig:mean 	52
scalar Network.dyn_peer[9966] 	lookupTimeSig:mean 	6.7714285714286
scalar Network.dyn_peer[9966] 	lookupStabilitySig:mean 	0.99265697655833
scalar Network.dyn_peer[9966] 	lookupHopsSig:mean 	66.785714285714
scalar Network.dyn_peer[9967] 	lookupTimeSig:mean 	8.4142857142857
scalar Network.dyn_peer[9967] 	lookupStabilitySig:mean 	0.99033049261197
scalar Network.dyn_peer[9967] 	lookupHopsSig:mean 	83.285714285714
scalar Network.dyn_peer[9968] 	lookupTimeSig:mean 	5.1857142857143
scalar Network.dyn_peer[9968] 	lookupStabilitySig:mean 	0.99364128968279
scalar Network.dyn_peer[9968] 	lookupHopsSig:mean 	51
scalar Network.dyn_peer[9969] 	lookupTimeSig:mean 	4.2166666666667
scalar Network.dyn_peer[9969] 	lookupStabilitySig:mean 	0.99456686957274
scalar Network.dyn_peer[9969] 	lookupHopsSig:mean 	41.333333333333
scalar Network.dyn_peer[9970] 	lookupTimeSig:mean 	5.3769230769231
scalar Network.dyn_peer[9970] 	lookupStabilitySig:mean 	0.99396953429991
scalar Network.dyn_peer[9970] 	lookupHopsSig:mean 	52.846153846154
scalar Network.dyn_peer[9971] 	lookupTimeSig:mean 	4.7857142857143
scalar Network.dyn_peer[9971] 	lookupStabilitySig:mean 	0.99408230415013
scalar Network.dyn_peer[9971] 	lookupHopsSig:mean 	47
scalar Network.dyn_peer[9972] 	lookupTimeSig:mean 	6.0277777777778
scalar Network.dyn_peer[9972] 	lookupStabilitySig:mean 	0.99351932365486
scalar Network.dyn_peer[9972] 	lookupHopsSig:mean 	59.333333333333
scalar Network.dyn_peer[9973] 	lookupTimeSig:mean 	7.48
scalar Network.dyn_peer[9973] 	lookupStabilitySig:mean 	0.99093086156063
scalar Network.dyn_peer[9973] 	lookupHopsSig:mean 	74
scalar Network.dyn_peer[9974] 	lookupTimeSig:mean 	4.8285714285714
scalar Network.dyn_peer[9974] 	lookupStabilitySig:mean 	0.99402797143973
scalar Network.dyn_peer[9974] 	lookupHopsSig:mean 	47.428571428571
scalar Network.dyn_peer[9975] 	lookupTimeSig:mean 	5.6714285714286
scalar Network.dyn_peer[9975] 	lookupStabilitySig:mean 	0.99310341357653
scalar Network.dyn_peer[9975] 	lookupHopsSig:mean 	55.857142857143
scalar Network.dyn_peer[9976] 	lookupTimeSig:mean 	5.4428571428571
scalar Network.dyn_peer[9976] 	lookupStabilitySig:mean 	0.99334628454276
scalar Network.dyn_peer[9976] 	lookupHopsSig:mean 	53.571428571429
scalar Network.dyn_peer[9977] 	lookupTimeSig:mean 	8.1875
scalar Network.dyn_peer[9977] 	lookupStabilitySig:mean 	0.99093837982946
scalar Network.dyn_peer[9977] 	lookupHopsSig:mean 	81
scalar Network.dyn_peer[9978] 	lookupTimeSig:mean 	3.9285714285714
scalar Network.dyn_peer[9978] 	lookupStabilitySig:mean 	0.99544719107715
scalar Network.dyn_peer[9978] 	lookupHopsSig:mean 	38.357142857143
scalar Network.dyn_peer[9979] 	lookupTimeSig:mean 	5.4
scalar Network.dyn_peer[9979] 	lookupStabilitySig:mean 	0.99344675011733
scalar Network.dyn_peer[9979] 	lookupHopsSig:mean 	53.142857142857
scalar Network.dyn_peer[9980] 	lookupTimeSig:mean 	5.7111111111111
scalar Network.dyn_peer[9980] 	lookupStabilitySig:mean 	0.9934260797066
scalar Network.dyn_peer[9980] 	lookupHopsSig:mean 	56.222222222222
scalar Network.dyn_peer[9981] 	lookupTimeSig:mean 	3.55
scalar Network.dyn_peer[9981] 	lookupStabilitySig:mean 	0.99521237079171
scalar Network.dyn_peer[9981] 	lookupHopsSig:mean 	34.75
scalar Network.dyn_peer[9982] 	lookupTimeSig:mean 	6.56
scalar Network.dyn_peer[9982] 	lookupStabilitySig:mean 	0.99273075548699
scalar Network.dyn_peer[9982] 	lookupHopsSig:mean 	64.7
scalar Network.dyn_peer[9983] 	lookupTimeSig:mean 	5.1888888888889
scalar Network.dyn_peer[9983] 	lookupStabilitySig:mean 	0.99385124331133
scalar Network.dyn_peer[9983] 	lookupHopsSig:mean 	51
scalar Network.dyn_peer[9984] 	lookupTimeSig:mean 	5.74
scalar Network.dyn_peer[9984] 	lookupStabilitySig:mean 	0.99274514643475
scalar Network.dyn_peer[9984] 	lookupHopsSig:mean 	56.6
scalar Network.dyn_peer[9985] 	lookupTimeSig:mean 	5.5333333333333
scalar Network.dyn_peer[9985] 	lookupStabilitySig:mean 	0.99374604904248
scalar Network.dyn_peer[9985] 	lookupHopsSig:mean 	54.416666666667
scalar Network.dyn_peer[9986] 	lookupTimeSig:mean 	4.5666666666667
scalar Network.dyn_peer[9986] 	lookupStabilitySig:mean 	0.9942033449964
scalar Network.dyn_peer[9986] 	lookupHopsSig:mean 	44.833333333333
scalar Network.dyn_peer[9987] 	lookupTimeSig:mean 	5.5166666666667
scalar Network.dyn_peer[9987] 	lookupStabilitySig:mean 	0.99376264209665
scalar Network.dyn_peer[9987] 	lookupHopsSig:mean 	54.25
scalar Network.dyn_peer[9988] 	lookupTimeSig:mean 	4.9857142857143
scalar Network.dyn_peer[9988] 	lookupStabilitySig:mean 	0.99384046435755
scalar Network.dyn_peer[9988] 	lookupHopsSig:mean 	49
scalar Network.dyn_peer[9989] 	lookupTimeSig:mean 	2.5
scalar Network.dyn_peer[9989] 	lookupStabilitySig:mean 	0.99677010709679
scalar Network.dyn_peer[9989] 	lookupHopsSig:mean 	24.111111111111
scalar Network.dyn_peer[9990] 	lookupTimeSig:mean 	6.45
scalar Network.dyn_peer[9990] 	lookupStabilitySig:mean 	0.99121206067502
scalar Network.dyn_peer[9990] 	lookupHopsSig:mean 	64
scalar Network.dyn_peer[9991] 	lookupTimeSig:mean 	3.9941176470588
scalar Network.dyn_peer[9991] 	lookupStabilitySig:mean 	0.99550075404199
scalar Network.dyn_peer[9991] 	lookupHopsSig:mean 	39
scalar Network.dyn_peer[9992] 	lookupTimeSig:mean 	3.9
scalar Network.dyn_peer[9992] 	lookupStabilitySig:mean 	0.99531812893904
scalar Network.dyn_peer[9992] 	lookupHopsSig:mean 	38.090909090909
scalar Network.dyn_peer[9993] 	lookupTimeSig:mean 	4.7
scalar Network.dyn_peer[9993] 	lookupStabilitySig:mean 	0.99413939169608
scalar Network.dyn_peer[9993] 	lookupHopsSig:mean 	46.142857142857
scalar Network.dyn_peer[9994] 	lookupTimeSig:mean 	5.86
scalar Network.dyn_peer[9994] 	lookupStabilitySig:mean 	0.99360190491813
scalar Network.dyn_peer[9994] 	lookupHopsSig:mean 	57.666666666667
scalar Network.dyn_peer[9995] 	lookupTimeSig:mean 	5.925
scalar Network.dyn_peer[9995] 	lookupStabilitySig:mean 	0.9933364422759
scalar Network.dyn_peer[9995] 	lookupHopsSig:mean 	58.333333333333
scalar Network.dyn_peer[9996] 	lookupTimeSig:mean 	5.075
scalar Network.dyn_peer[9996] 	lookupStabilitySig:mean 	0.99420256561522
scalar Network.dyn_peer[9996] 	lookupHopsSig:mean 	49.833333333333
scalar Network.dyn_peer[9997] 	lookupTimeSig:mean 	5.025
scalar Network.dyn_peer[9997] 	lookupStabilitySig:mean 	0.99391564812686
scalar Network.dyn_peer[9997] 	lookupHopsSig:mean 	49.375
scalar Network.dyn_peer[9998] 	lookupTimeSig:mean 	3.06
scalar Network.dyn_peer[9998] 	lookupStabilitySig:mean 	0.99638740201093
scalar Network.dyn_peer[9998] 	lookupHopsSig:mean 	29.666666666667
scalar Network.dyn_peer[9999] 	lookupTimeSig:mean 	4.4555555555556
scalar Network.dyn_peer[9999] 	lookupStabilitySig:mean 	0.99461923429691
scalar Network.dyn_peer[9999] 	lookupHopsSig:mean 	43.666666666667
scalar Network.churner 	inGoingSizeSig:mean 	2123.8225177482
