version 2
run Stability2-105-20130528-10:48:16-24168
attr configname Stability2
attr datetime 20130528-10:48:16
attr experiment Stability2
attr inifile omnetpp.ini
attr iterationvars $0=1000
attr iterationvars2 "$0=1000, $repetition=5"
attr measurement $0=1000
attr network Network
attr processid 24168
attr repetition 5
attr replication #5
attr resultdir results
attr runnumber 105
attr seedset 105

scalar Network.dyn_peer[0] 	lookupTimeSig:mean 	3.1705882352941
scalar Network.dyn_peer[0] 	lookupStabilitySig:mean 	0.87965495829635
scalar Network.dyn_peer[0] 	lookupHopsSig:mean 	30.764705882353
scalar Network.dyn_peer[1] 	lookupTimeSig:mean 	4.0857142857143
scalar Network.dyn_peer[1] 	lookupStabilitySig:mean 	0.84358315104536
scalar Network.dyn_peer[1] 	lookupHopsSig:mean 	39.928571428571
scalar Network.dyn_peer[2] 	lookupTimeSig:mean 	3.2761904761905
scalar Network.dyn_peer[2] 	lookupStabilitySig:mean 	0.88941612983832
scalar Network.dyn_peer[2] 	lookupHopsSig:mean 	31.809523809524
scalar Network.dyn_peer[3] 	lookupTimeSig:mean 	2.6684210526316
scalar Network.dyn_peer[3] 	lookupStabilitySig:mean 	0.8828073135136
scalar Network.dyn_peer[3] 	lookupHopsSig:mean 	25.736842105263
scalar Network.dyn_peer[4] 	lookupTimeSig:mean 	2.265
scalar Network.dyn_peer[4] 	lookupStabilitySig:mean 	0.88192030596547
scalar Network.dyn_peer[4] 	lookupHopsSig:mean 	21.7
scalar Network.dyn_peer[5] 	lookupTimeSig:mean 	4.11
scalar Network.dyn_peer[5] 	lookupStabilitySig:mean 	0.89132691321429
scalar Network.dyn_peer[5] 	lookupHopsSig:mean 	40.15
scalar Network.dyn_peer[6] 	lookupTimeSig:mean 	2.8851851851852
scalar Network.dyn_peer[6] 	lookupStabilitySig:mean 	0.91442832535271
scalar Network.dyn_peer[6] 	lookupHopsSig:mean 	27.888888888889
scalar Network.dyn_peer[7] 	lookupTimeSig:mean 	4
scalar Network.dyn_peer[7] 	lookupStabilitySig:mean 	0.90148634783438
scalar Network.dyn_peer[7] 	lookupHopsSig:mean 	39.04347826087
scalar Network.dyn_peer[8] 	lookupTimeSig:mean 	2.6769230769231
scalar Network.dyn_peer[8] 	lookupStabilitySig:mean 	0.86889842037971
scalar Network.dyn_peer[8] 	lookupHopsSig:mean 	25.846153846154
scalar Network.dyn_peer[9] 	lookupTimeSig:mean 	3.2
scalar Network.dyn_peer[9] 	lookupStabilitySig:mean 	0.89128565503394
scalar Network.dyn_peer[9] 	lookupHopsSig:mean 	31.058823529412
scalar Network.dyn_peer[10] 	lookupTimeSig:mean 	2.9888888888889
scalar Network.dyn_peer[10] 	lookupStabilitySig:mean 	0.87727616872225
scalar Network.dyn_peer[10] 	lookupHopsSig:mean 	28.944444444444
scalar Network.dyn_peer[11] 	lookupTimeSig:mean 	2.1761904761905
scalar Network.dyn_peer[11] 	lookupStabilitySig:mean 	0.89462195091792
scalar Network.dyn_peer[11] 	lookupHopsSig:mean 	20.809523809524
scalar Network.dyn_peer[12] 	lookupTimeSig:mean 	2.8190476190476
scalar Network.dyn_peer[12] 	lookupStabilitySig:mean 	0.90382521576248
scalar Network.dyn_peer[12] 	lookupHopsSig:mean 	27.238095238095
scalar Network.dyn_peer[13] 	lookupTimeSig:mean 	4.0217391304348
scalar Network.dyn_peer[13] 	lookupStabilitySig:mean 	0.9106399306582
scalar Network.dyn_peer[13] 	lookupHopsSig:mean 	39.260869565217
scalar Network.dyn_peer[14] 	lookupTimeSig:mean 	3.2
scalar Network.dyn_peer[14] 	lookupStabilitySig:mean 	0.90148022046335
scalar Network.dyn_peer[14] 	lookupHopsSig:mean 	31.047619047619
scalar Network.dyn_peer[15] 	lookupTimeSig:mean 	2.6470588235294
scalar Network.dyn_peer[15] 	lookupStabilitySig:mean 	0.86172106236165
scalar Network.dyn_peer[15] 	lookupHopsSig:mean 	25.529411764706
scalar Network.dyn_peer[16] 	lookupTimeSig:mean 	3.5291666666667
scalar Network.dyn_peer[16] 	lookupStabilitySig:mean 	0.90614032001273
scalar Network.dyn_peer[16] 	lookupHopsSig:mean 	34.333333333333
scalar Network.dyn_peer[17] 	lookupTimeSig:mean 	3.4235294117647
scalar Network.dyn_peer[17] 	lookupStabilitySig:mean 	0.86916989162016
scalar Network.dyn_peer[17] 	lookupHopsSig:mean 	33.294117647059
scalar Network.dyn_peer[18] 	lookupTimeSig:mean 	3.9724137931034
scalar Network.dyn_peer[18] 	lookupStabilitySig:mean 	0.92806885420377
scalar Network.dyn_peer[18] 	lookupHopsSig:mean 	38.758620689655
scalar Network.dyn_peer[19] 	lookupTimeSig:mean 	3.3428571428571
scalar Network.dyn_peer[19] 	lookupStabilitySig:mean 	0.87623696634546
scalar Network.dyn_peer[19] 	lookupHopsSig:mean 	32.5
scalar Network.dyn_peer[20] 	lookupTimeSig:mean 	2.7409090909091
scalar Network.dyn_peer[20] 	lookupStabilitySig:mean 	0.91279723061069
scalar Network.dyn_peer[20] 	lookupHopsSig:mean 	26.454545454545
scalar Network.dyn_peer[21] 	lookupTimeSig:mean 	2.3909090909091
scalar Network.dyn_peer[21] 	lookupStabilitySig:mean 	0.90927927972834
scalar Network.dyn_peer[21] 	lookupHopsSig:mean 	22.954545454545
scalar Network.dyn_peer[22] 	lookupTimeSig:mean 	3.05
scalar Network.dyn_peer[22] 	lookupStabilitySig:mean 	0.88329018008274
scalar Network.dyn_peer[22] 	lookupHopsSig:mean 	29.555555555556
scalar Network.dyn_peer[23] 	lookupTimeSig:mean 	2.6111111111111
scalar Network.dyn_peer[23] 	lookupStabilitySig:mean 	0.8972108529415
scalar Network.dyn_peer[23] 	lookupHopsSig:mean 	25.166666666667
scalar Network.dyn_peer[24] 	lookupTimeSig:mean 	3.075
scalar Network.dyn_peer[24] 	lookupStabilitySig:mean 	0.88515869998373
scalar Network.dyn_peer[24] 	lookupHopsSig:mean 	29.8
scalar Network.dyn_peer[25] 	lookupTimeSig:mean 	1.2
scalar Network.dyn_peer[25] 	lookupStabilitySig:mean 	0.86028617191395
scalar Network.dyn_peer[25] 	lookupHopsSig:mean 	11.071428571429
scalar Network.dyn_peer[26] 	lookupTimeSig:mean 	2.56875
scalar Network.dyn_peer[26] 	lookupStabilitySig:mean 	0.89270975351974
scalar Network.dyn_peer[26] 	lookupHopsSig:mean 	24.75
scalar Network.dyn_peer[27] 	lookupTimeSig:mean 	3.5333333333333
scalar Network.dyn_peer[27] 	lookupStabilitySig:mean 	0.89173412141261
scalar Network.dyn_peer[27] 	lookupHopsSig:mean 	34.388888888889
scalar Network.dyn_peer[28] 	lookupTimeSig:mean 	2.8090909090909
scalar Network.dyn_peer[28] 	lookupStabilitySig:mean 	0.90423708940877
scalar Network.dyn_peer[28] 	lookupHopsSig:mean 	27.136363636364
scalar Network.dyn_peer[29] 	lookupTimeSig:mean 	3.71875
scalar Network.dyn_peer[29] 	lookupStabilitySig:mean 	0.88016610787599
scalar Network.dyn_peer[29] 	lookupHopsSig:mean 	36.25
scalar Network.dyn_peer[30] 	lookupTimeSig:mean 	4.69375
scalar Network.dyn_peer[30] 	lookupStabilitySig:mean 	0.87797225282702
scalar Network.dyn_peer[30] 	lookupHopsSig:mean 	46
scalar Network.dyn_peer[31] 	lookupTimeSig:mean 	2.9888888888889
scalar Network.dyn_peer[31] 	lookupStabilitySig:mean 	0.8961250848111
scalar Network.dyn_peer[31] 	lookupHopsSig:mean 	28.944444444444
scalar Network.dyn_peer[32] 	lookupTimeSig:mean 	3.2173913043478
scalar Network.dyn_peer[32] 	lookupStabilitySig:mean 	0.89847350496617
scalar Network.dyn_peer[32] 	lookupHopsSig:mean 	31.217391304348
scalar Network.dyn_peer[33] 	lookupTimeSig:mean 	3.7583333333333
scalar Network.dyn_peer[33] 	lookupStabilitySig:mean 	0.92795687009736
scalar Network.dyn_peer[33] 	lookupHopsSig:mean 	36.625
scalar Network.dyn_peer[34] 	lookupTimeSig:mean 	2.9
scalar Network.dyn_peer[34] 	lookupStabilitySig:mean 	0.90002863493282
scalar Network.dyn_peer[34] 	lookupHopsSig:mean 	28.05
scalar Network.dyn_peer[35] 	lookupTimeSig:mean 	3.10625
scalar Network.dyn_peer[35] 	lookupStabilitySig:mean 	0.89081555954181
scalar Network.dyn_peer[35] 	lookupHopsSig:mean 	30.125
scalar Network.dyn_peer[36] 	lookupTimeSig:mean 	3.0826086956522
scalar Network.dyn_peer[36] 	lookupStabilitySig:mean 	0.90963473201365
scalar Network.dyn_peer[36] 	lookupHopsSig:mean 	29.869565217391
scalar Network.dyn_peer[37] 	lookupTimeSig:mean 	3.5652173913043
scalar Network.dyn_peer[37] 	lookupStabilitySig:mean 	0.91424452517506
scalar Network.dyn_peer[37] 	lookupHopsSig:mean 	34.695652173913
scalar Network.dyn_peer[38] 	lookupTimeSig:mean 	3.3130434782609
scalar Network.dyn_peer[38] 	lookupStabilitySig:mean 	0.92752075824461
scalar Network.dyn_peer[38] 	lookupHopsSig:mean 	32.173913043478
scalar Network.dyn_peer[39] 	lookupTimeSig:mean 	3.0217391304348
scalar Network.dyn_peer[39] 	lookupStabilitySig:mean 	0.91366057305435
scalar Network.dyn_peer[39] 	lookupHopsSig:mean 	29.260869565217
scalar Network.dyn_peer[40] 	lookupTimeSig:mean 	2.4538461538462
scalar Network.dyn_peer[40] 	lookupStabilitySig:mean 	0.86361862504138
scalar Network.dyn_peer[40] 	lookupHopsSig:mean 	23.615384615385
scalar Network.dyn_peer[41] 	lookupTimeSig:mean 	3.1833333333333
scalar Network.dyn_peer[41] 	lookupStabilitySig:mean 	0.91436844088862
scalar Network.dyn_peer[41] 	lookupHopsSig:mean 	30.888888888889
scalar Network.dyn_peer[42] 	lookupTimeSig:mean 	2.992
scalar Network.dyn_peer[42] 	lookupStabilitySig:mean 	0.92782145155128
scalar Network.dyn_peer[42] 	lookupHopsSig:mean 	28.96
scalar Network.dyn_peer[43] 	lookupTimeSig:mean 	3.3666666666667
scalar Network.dyn_peer[43] 	lookupStabilitySig:mean 	0.9163944250904
scalar Network.dyn_peer[43] 	lookupHopsSig:mean 	32.714285714286
scalar Network.dyn_peer[44] 	lookupTimeSig:mean 	2.795
scalar Network.dyn_peer[44] 	lookupStabilitySig:mean 	0.92178350002505
scalar Network.dyn_peer[44] 	lookupHopsSig:mean 	27
scalar Network.dyn_peer[45] 	lookupTimeSig:mean 	3.4392857142857
scalar Network.dyn_peer[45] 	lookupStabilitySig:mean 	0.94146691922963
scalar Network.dyn_peer[45] 	lookupHopsSig:mean 	33.428571428571
scalar Network.dyn_peer[46] 	lookupTimeSig:mean 	2.6409090909091
scalar Network.dyn_peer[46] 	lookupStabilitySig:mean 	0.91527671195482
scalar Network.dyn_peer[46] 	lookupHopsSig:mean 	25.454545454545
scalar Network.dyn_peer[47] 	lookupTimeSig:mean 	1.78125
scalar Network.dyn_peer[47] 	lookupStabilitySig:mean 	0.89364386635134
scalar Network.dyn_peer[47] 	lookupHopsSig:mean 	16.875
scalar Network.dyn_peer[48] 	lookupTimeSig:mean 	2.9142857142857
scalar Network.dyn_peer[48] 	lookupStabilitySig:mean 	0.88981663751682
scalar Network.dyn_peer[48] 	lookupHopsSig:mean 	28.214285714286
scalar Network.dyn_peer[49] 	lookupTimeSig:mean 	3.3380952380952
scalar Network.dyn_peer[49] 	lookupStabilitySig:mean 	0.93490740803203
scalar Network.dyn_peer[49] 	lookupHopsSig:mean 	32.428571428571
scalar Network.dyn_peer[50] 	lookupTimeSig:mean 	3.68
scalar Network.dyn_peer[50] 	lookupStabilitySig:mean 	0.9265099962987
scalar Network.dyn_peer[50] 	lookupHopsSig:mean 	35.84
scalar Network.dyn_peer[51] 	lookupTimeSig:mean 	3.4045454545455
scalar Network.dyn_peer[51] 	lookupStabilitySig:mean 	0.92674199742561
scalar Network.dyn_peer[51] 	lookupHopsSig:mean 	33.090909090909
scalar Network.dyn_peer[52] 	lookupTimeSig:mean 	3.7857142857143
scalar Network.dyn_peer[52] 	lookupStabilitySig:mean 	0.92865714252306
scalar Network.dyn_peer[52] 	lookupHopsSig:mean 	36.904761904762
scalar Network.dyn_peer[53] 	lookupTimeSig:mean 	2.8526315789474
scalar Network.dyn_peer[53] 	lookupStabilitySig:mean 	0.9381305164486
scalar Network.dyn_peer[53] 	lookupHopsSig:mean 	27.578947368421
scalar Network.dyn_peer[54] 	lookupTimeSig:mean 	3.9421052631579
scalar Network.dyn_peer[54] 	lookupStabilitySig:mean 	0.91950587320485
scalar Network.dyn_peer[54] 	lookupHopsSig:mean 	38.473684210526
scalar Network.dyn_peer[55] 	lookupTimeSig:mean 	2.8857142857143
scalar Network.dyn_peer[55] 	lookupStabilitySig:mean 	0.91140213814132
scalar Network.dyn_peer[55] 	lookupHopsSig:mean 	27.928571428571
scalar Network.dyn_peer[56] 	lookupTimeSig:mean 	4.3533333333333
scalar Network.dyn_peer[56] 	lookupStabilitySig:mean 	0.90541061448554
scalar Network.dyn_peer[56] 	lookupHopsSig:mean 	42.6
scalar Network.dyn_peer[57] 	lookupTimeSig:mean 	2.64
scalar Network.dyn_peer[57] 	lookupStabilitySig:mean 	0.92445104164071
scalar Network.dyn_peer[57] 	lookupHopsSig:mean 	25.45
scalar Network.dyn_peer[58] 	lookupTimeSig:mean 	1.9954545454545
scalar Network.dyn_peer[58] 	lookupStabilitySig:mean 	0.92907713756854
scalar Network.dyn_peer[58] 	lookupHopsSig:mean 	19
scalar Network.dyn_peer[59] 	lookupTimeSig:mean 	3.0434782608696
scalar Network.dyn_peer[59] 	lookupStabilitySig:mean 	0.93384921458631
scalar Network.dyn_peer[59] 	lookupHopsSig:mean 	29.478260869565
scalar Network.dyn_peer[60] 	lookupTimeSig:mean 	3.1208333333333
scalar Network.dyn_peer[60] 	lookupStabilitySig:mean 	0.93931587680709
scalar Network.dyn_peer[60] 	lookupHopsSig:mean 	30.25
scalar Network.dyn_peer[61] 	lookupTimeSig:mean 	3.7083333333333
scalar Network.dyn_peer[61] 	lookupStabilitySig:mean 	0.93043793304241
scalar Network.dyn_peer[61] 	lookupHopsSig:mean 	36.125
scalar Network.dyn_peer[62] 	lookupTimeSig:mean 	3.2782608695652
scalar Network.dyn_peer[62] 	lookupStabilitySig:mean 	0.92128083722808
scalar Network.dyn_peer[62] 	lookupHopsSig:mean 	31.826086956522
scalar Network.dyn_peer[63] 	lookupTimeSig:mean 	2.3904761904762
scalar Network.dyn_peer[63] 	lookupStabilitySig:mean 	0.9308983186659
scalar Network.dyn_peer[63] 	lookupHopsSig:mean 	22.952380952381
scalar Network.dyn_peer[64] 	lookupTimeSig:mean 	4.4545454545455
scalar Network.dyn_peer[64] 	lookupStabilitySig:mean 	0.93053901406132
scalar Network.dyn_peer[64] 	lookupHopsSig:mean 	43.590909090909
scalar Network.dyn_peer[65] 	lookupTimeSig:mean 	4.00625
scalar Network.dyn_peer[65] 	lookupStabilitySig:mean 	0.92998432760942
scalar Network.dyn_peer[65] 	lookupHopsSig:mean 	39.125
scalar Network.dyn_peer[66] 	lookupTimeSig:mean 	3.7
scalar Network.dyn_peer[66] 	lookupStabilitySig:mean 	0.9345479460677
scalar Network.dyn_peer[66] 	lookupHopsSig:mean 	36.047619047619
scalar Network.dyn_peer[67] 	lookupTimeSig:mean 	2.3590909090909
scalar Network.dyn_peer[67] 	lookupStabilitySig:mean 	0.9257293659982
scalar Network.dyn_peer[67] 	lookupHopsSig:mean 	22.636363636364
scalar Network.dyn_peer[68] 	lookupTimeSig:mean 	3.0970588235294
scalar Network.dyn_peer[68] 	lookupStabilitySig:mean 	0.95469543276875
scalar Network.dyn_peer[68] 	lookupHopsSig:mean 	30
scalar Network.dyn_peer[69] 	lookupTimeSig:mean 	2.9935483870968
scalar Network.dyn_peer[69] 	lookupStabilitySig:mean 	0.94917170604646
scalar Network.dyn_peer[69] 	lookupHopsSig:mean 	28.967741935484
scalar Network.dyn_peer[70] 	lookupTimeSig:mean 	3.6206896551724
scalar Network.dyn_peer[70] 	lookupStabilitySig:mean 	0.95391947701413
scalar Network.dyn_peer[70] 	lookupHopsSig:mean 	35.241379310345
scalar Network.dyn_peer[71] 	lookupTimeSig:mean 	3.3565217391304
scalar Network.dyn_peer[71] 	lookupStabilitySig:mean 	0.94062107383355
scalar Network.dyn_peer[71] 	lookupHopsSig:mean 	32.608695652174
scalar Network.dyn_peer[72] 	lookupTimeSig:mean 	3.7608695652174
scalar Network.dyn_peer[72] 	lookupStabilitySig:mean 	0.93851105188546
scalar Network.dyn_peer[72] 	lookupHopsSig:mean 	36.652173913043
scalar Network.dyn_peer[73] 	lookupTimeSig:mean 	2.9105263157895
scalar Network.dyn_peer[73] 	lookupStabilitySig:mean 	0.93229951758526
scalar Network.dyn_peer[73] 	lookupHopsSig:mean 	28.157894736842
scalar Network.dyn_peer[74] 	lookupTimeSig:mean 	3.4047619047619
scalar Network.dyn_peer[74] 	lookupStabilitySig:mean 	0.93050325431839
scalar Network.dyn_peer[74] 	lookupHopsSig:mean 	33.095238095238
scalar Network.dyn_peer[75] 	lookupTimeSig:mean 	3.3875
scalar Network.dyn_peer[75] 	lookupStabilitySig:mean 	0.91452567488886
scalar Network.dyn_peer[75] 	lookupHopsSig:mean 	32.9375
scalar Network.dyn_peer[76] 	lookupTimeSig:mean 	3.0277777777778
scalar Network.dyn_peer[76] 	lookupStabilitySig:mean 	0.92221847318837
scalar Network.dyn_peer[76] 	lookupHopsSig:mean 	29.333333333333
scalar Network.dyn_peer[77] 	lookupTimeSig:mean 	2.5166666666667
scalar Network.dyn_peer[77] 	lookupStabilitySig:mean 	0.9376286858751
scalar Network.dyn_peer[77] 	lookupHopsSig:mean 	24.208333333333
scalar Network.dyn_peer[78] 	lookupTimeSig:mean 	2.625
scalar Network.dyn_peer[78] 	lookupStabilitySig:mean 	0.91096523066517
scalar Network.dyn_peer[78] 	lookupHopsSig:mean 	25.3125
scalar Network.dyn_peer[79] 	lookupTimeSig:mean 	2.495
scalar Network.dyn_peer[79] 	lookupStabilitySig:mean 	0.92506240166258
scalar Network.dyn_peer[79] 	lookupHopsSig:mean 	24
scalar Network.dyn_peer[80] 	lookupTimeSig:mean 	3.3608695652174
scalar Network.dyn_peer[80] 	lookupStabilitySig:mean 	0.93267910113639
scalar Network.dyn_peer[80] 	lookupHopsSig:mean 	32.652173913043
scalar Network.dyn_peer[81] 	lookupTimeSig:mean 	3.0227272727273
scalar Network.dyn_peer[81] 	lookupStabilitySig:mean 	0.93431043736531
scalar Network.dyn_peer[81] 	lookupHopsSig:mean 	29.272727272727
scalar Network.dyn_peer[82] 	lookupTimeSig:mean 	3.6571428571429
scalar Network.dyn_peer[82] 	lookupStabilitySig:mean 	0.94032658513502
scalar Network.dyn_peer[82] 	lookupHopsSig:mean 	35.619047619048
scalar Network.dyn_peer[83] 	lookupTimeSig:mean 	3.9466666666667
scalar Network.dyn_peer[83] 	lookupStabilitySig:mean 	0.93070392108833
scalar Network.dyn_peer[83] 	lookupHopsSig:mean 	38.533333333333
scalar Network.dyn_peer[84] 	lookupTimeSig:mean 	3.7210526315789
scalar Network.dyn_peer[84] 	lookupStabilitySig:mean 	0.92638994439652
scalar Network.dyn_peer[84] 	lookupHopsSig:mean 	36.263157894737
scalar Network.dyn_peer[85] 	lookupTimeSig:mean 	2.8277777777778
scalar Network.dyn_peer[85] 	lookupStabilitySig:mean 	0.91957517501174
scalar Network.dyn_peer[85] 	lookupHopsSig:mean 	27.333333333333
scalar Network.dyn_peer[86] 	lookupTimeSig:mean 	3.2909090909091
scalar Network.dyn_peer[86] 	lookupStabilitySig:mean 	0.94491396453867
scalar Network.dyn_peer[86] 	lookupHopsSig:mean 	31.954545454545
scalar Network.dyn_peer[87] 	lookupTimeSig:mean 	3.5521739130435
scalar Network.dyn_peer[87] 	lookupStabilitySig:mean 	0.93490486231673
scalar Network.dyn_peer[87] 	lookupHopsSig:mean 	34.565217391304
scalar Network.dyn_peer[88] 	lookupTimeSig:mean 	3.7925925925926
scalar Network.dyn_peer[88] 	lookupStabilitySig:mean 	0.94210736860556
scalar Network.dyn_peer[88] 	lookupHopsSig:mean 	36.962962962963
scalar Network.dyn_peer[89] 	lookupTimeSig:mean 	2.7277777777778
scalar Network.dyn_peer[89] 	lookupStabilitySig:mean 	0.9255245270712
scalar Network.dyn_peer[89] 	lookupHopsSig:mean 	26.333333333333
scalar Network.dyn_peer[90] 	lookupTimeSig:mean 	4.475
scalar Network.dyn_peer[90] 	lookupStabilitySig:mean 	0.94827338266519
scalar Network.dyn_peer[90] 	lookupHopsSig:mean 	43.785714285714
scalar Network.dyn_peer[91] 	lookupTimeSig:mean 	2.5722222222222
scalar Network.dyn_peer[91] 	lookupStabilitySig:mean 	0.91962809303206
scalar Network.dyn_peer[91] 	lookupHopsSig:mean 	24.777777777778
scalar Network.dyn_peer[92] 	lookupTimeSig:mean 	2.7166666666667
scalar Network.dyn_peer[92] 	lookupStabilitySig:mean 	0.94773400679696
scalar Network.dyn_peer[92] 	lookupHopsSig:mean 	26.208333333333
scalar Network.dyn_peer[93] 	lookupTimeSig:mean 	3.2588235294118
scalar Network.dyn_peer[93] 	lookupStabilitySig:mean 	0.93322607995394
scalar Network.dyn_peer[93] 	lookupHopsSig:mean 	31.647058823529
scalar Network.dyn_peer[94] 	lookupTimeSig:mean 	3.8304347826087
scalar Network.dyn_peer[94] 	lookupStabilitySig:mean 	0.94187735416926
scalar Network.dyn_peer[94] 	lookupHopsSig:mean 	37.347826086957
scalar Network.dyn_peer[95] 	lookupTimeSig:mean 	2.2923076923077
scalar Network.dyn_peer[95] 	lookupStabilitySig:mean 	0.95545248359961
scalar Network.dyn_peer[95] 	lookupHopsSig:mean 	21.961538461538
scalar Network.dyn_peer[96] 	lookupTimeSig:mean 	3.215
scalar Network.dyn_peer[96] 	lookupStabilitySig:mean 	0.93231153229717
scalar Network.dyn_peer[96] 	lookupHopsSig:mean 	31.2
scalar Network.dyn_peer[97] 	lookupTimeSig:mean 	3.3055555555556
scalar Network.dyn_peer[97] 	lookupStabilitySig:mean 	0.93462049571746
scalar Network.dyn_peer[97] 	lookupHopsSig:mean 	32.111111111111
scalar Network.dyn_peer[98] 	lookupTimeSig:mean 	3.75
scalar Network.dyn_peer[98] 	lookupStabilitySig:mean 	0.92950205566982
scalar Network.dyn_peer[98] 	lookupHopsSig:mean 	36.555555555556
scalar Network.dyn_peer[99] 	lookupTimeSig:mean 	2.9137931034483
scalar Network.dyn_peer[99] 	lookupStabilitySig:mean 	0.9538798980447
scalar Network.dyn_peer[99] 	lookupHopsSig:mean 	28.172413793103
scalar Network.dyn_peer[100] 	lookupTimeSig:mean 	2.9809523809524
scalar Network.dyn_peer[100] 	lookupStabilitySig:mean 	0.95526660898966
scalar Network.dyn_peer[100] 	lookupHopsSig:mean 	28.857142857143
scalar Network.dyn_peer[101] 	lookupTimeSig:mean 	3.2421052631579
scalar Network.dyn_peer[101] 	lookupStabilitySig:mean 	0.94459280861836
scalar Network.dyn_peer[101] 	lookupHopsSig:mean 	31.473684210526
scalar Network.dyn_peer[102] 	lookupTimeSig:mean 	2.5272727272727
scalar Network.dyn_peer[102] 	lookupStabilitySig:mean 	0.9035147911107
scalar Network.dyn_peer[102] 	lookupHopsSig:mean 	24.363636363636
scalar Network.dyn_peer[103] 	lookupTimeSig:mean 	3.4947368421053
scalar Network.dyn_peer[103] 	lookupStabilitySig:mean 	0.94102079563431
scalar Network.dyn_peer[103] 	lookupHopsSig:mean 	34
scalar Network.dyn_peer[104] 	lookupTimeSig:mean 	2.58125
scalar Network.dyn_peer[104] 	lookupStabilitySig:mean 	0.93724698100414
scalar Network.dyn_peer[104] 	lookupHopsSig:mean 	24.875
scalar Network.dyn_peer[105] 	lookupTimeSig:mean 	3.275
scalar Network.dyn_peer[105] 	lookupStabilitySig:mean 	0.9377317476552
scalar Network.dyn_peer[105] 	lookupHopsSig:mean 	31.8
scalar Network.dyn_peer[106] 	lookupTimeSig:mean 	3.49
scalar Network.dyn_peer[106] 	lookupStabilitySig:mean 	0.93979283610824
scalar Network.dyn_peer[106] 	lookupHopsSig:mean 	33.95
scalar Network.dyn_peer[107] 	lookupTimeSig:mean 	2.9692307692308
scalar Network.dyn_peer[107] 	lookupStabilitySig:mean 	0.95811863221864
scalar Network.dyn_peer[107] 	lookupHopsSig:mean 	28.730769230769
scalar Network.dyn_peer[108] 	lookupTimeSig:mean 	3.1217391304348
scalar Network.dyn_peer[108] 	lookupStabilitySig:mean 	0.95815297976926
scalar Network.dyn_peer[108] 	lookupHopsSig:mean 	30.260869565217
scalar Network.dyn_peer[109] 	lookupTimeSig:mean 	2.747619047619
scalar Network.dyn_peer[109] 	lookupStabilitySig:mean 	0.94383603607171
scalar Network.dyn_peer[109] 	lookupHopsSig:mean 	26.52380952381
scalar Network.dyn_peer[110] 	lookupTimeSig:mean 	2.6615384615385
scalar Network.dyn_peer[110] 	lookupStabilitySig:mean 	0.91229363007901
scalar Network.dyn_peer[110] 	lookupHopsSig:mean 	25.692307692308
scalar Network.dyn_peer[111] 	lookupTimeSig:mean 	4.5722222222222
scalar Network.dyn_peer[111] 	lookupStabilitySig:mean 	0.92858927883208
scalar Network.dyn_peer[111] 	lookupHopsSig:mean 	44.777777777778
scalar Network.dyn_peer[112] 	lookupTimeSig:mean 	4.0769230769231
scalar Network.dyn_peer[112] 	lookupStabilitySig:mean 	0.93627507321966
scalar Network.dyn_peer[112] 	lookupHopsSig:mean 	39.846153846154
scalar Network.dyn_peer[113] 	lookupTimeSig:mean 	2.947619047619
scalar Network.dyn_peer[113] 	lookupStabilitySig:mean 	0.93906559850577
scalar Network.dyn_peer[113] 	lookupHopsSig:mean 	28.52380952381
scalar Network.dyn_peer[114] 	lookupTimeSig:mean 	3.3166666666667
scalar Network.dyn_peer[114] 	lookupStabilitySig:mean 	0.96058667324057
scalar Network.dyn_peer[114] 	lookupHopsSig:mean 	32.208333333333
scalar Network.dyn_peer[115] 	lookupTimeSig:mean 	3.4736842105263
scalar Network.dyn_peer[115] 	lookupStabilitySig:mean 	0.93977045846221
scalar Network.dyn_peer[115] 	lookupHopsSig:mean 	33.789473684211
scalar Network.dyn_peer[116] 	lookupTimeSig:mean 	2.3785714285714
scalar Network.dyn_peer[116] 	lookupStabilitySig:mean 	0.92631634065349
scalar Network.dyn_peer[116] 	lookupHopsSig:mean 	22.857142857143
scalar Network.dyn_peer[117] 	lookupTimeSig:mean 	4.6714285714286
scalar Network.dyn_peer[117] 	lookupStabilitySig:mean 	0.96897007523304
scalar Network.dyn_peer[117] 	lookupHopsSig:mean 	45.742857142857
scalar Network.dyn_peer[118] 	lookupTimeSig:mean 	2.26
scalar Network.dyn_peer[118] 	lookupStabilitySig:mean 	0.92926160055795
scalar Network.dyn_peer[118] 	lookupHopsSig:mean 	21.666666666667
scalar Network.dyn_peer[119] 	lookupTimeSig:mean 	4.1941176470588
scalar Network.dyn_peer[119] 	lookupStabilitySig:mean 	0.93237794426215
scalar Network.dyn_peer[119] 	lookupHopsSig:mean 	41
scalar Network.dyn_peer[120] 	lookupTimeSig:mean 	2.7809523809524
scalar Network.dyn_peer[120] 	lookupStabilitySig:mean 	0.94864269204083
scalar Network.dyn_peer[120] 	lookupHopsSig:mean 	26.857142857143
scalar Network.dyn_peer[121] 	lookupTimeSig:mean 	3.29
scalar Network.dyn_peer[121] 	lookupStabilitySig:mean 	0.94516720258398
scalar Network.dyn_peer[121] 	lookupHopsSig:mean 	31.95
scalar Network.dyn_peer[122] 	lookupTimeSig:mean 	2.6842105263158
scalar Network.dyn_peer[122] 	lookupStabilitySig:mean 	0.93764979720704
scalar Network.dyn_peer[122] 	lookupHopsSig:mean 	25.894736842105
scalar Network.dyn_peer[123] 	lookupTimeSig:mean 	3.48
scalar Network.dyn_peer[123] 	lookupStabilitySig:mean 	0.94931557068485
scalar Network.dyn_peer[123] 	lookupHopsSig:mean 	33.85
scalar Network.dyn_peer[124] 	lookupTimeSig:mean 	3.324
scalar Network.dyn_peer[124] 	lookupStabilitySig:mean 	0.95324035758153
scalar Network.dyn_peer[124] 	lookupHopsSig:mean 	32.28
scalar Network.dyn_peer[125] 	lookupTimeSig:mean 	4.4692307692308
scalar Network.dyn_peer[125] 	lookupStabilitySig:mean 	0.91402152538873
scalar Network.dyn_peer[125] 	lookupHopsSig:mean 	43.769230769231
scalar Network.dyn_peer[126] 	lookupTimeSig:mean 	3.71875
scalar Network.dyn_peer[126] 	lookupStabilitySig:mean 	0.94063972342701
scalar Network.dyn_peer[126] 	lookupHopsSig:mean 	36.25
scalar Network.dyn_peer[127] 	lookupTimeSig:mean 	2.84
scalar Network.dyn_peer[127] 	lookupStabilitySig:mean 	0.95594176894054
scalar Network.dyn_peer[127] 	lookupHopsSig:mean 	27.44
scalar Network.dyn_peer[128] 	lookupTimeSig:mean 	3.8470588235294
scalar Network.dyn_peer[128] 	lookupStabilitySig:mean 	0.93725856503143
scalar Network.dyn_peer[128] 	lookupHopsSig:mean 	37.529411764706
scalar Network.dyn_peer[129] 	lookupTimeSig:mean 	3.4740740740741
scalar Network.dyn_peer[129] 	lookupStabilitySig:mean 	0.96556874447399
scalar Network.dyn_peer[129] 	lookupHopsSig:mean 	33.777777777778
scalar Network.dyn_peer[130] 	lookupTimeSig:mean 	3.9
scalar Network.dyn_peer[130] 	lookupStabilitySig:mean 	0.95231989330413
scalar Network.dyn_peer[130] 	lookupHopsSig:mean 	38.047619047619
scalar Network.dyn_peer[131] 	lookupTimeSig:mean 	3.376
scalar Network.dyn_peer[131] 	lookupStabilitySig:mean 	0.95832208994776
scalar Network.dyn_peer[131] 	lookupHopsSig:mean 	32.8
scalar Network.dyn_peer[132] 	lookupTimeSig:mean 	3.1692307692308
scalar Network.dyn_peer[132] 	lookupStabilitySig:mean 	0.9310000765209
scalar Network.dyn_peer[132] 	lookupHopsSig:mean 	30.769230769231
scalar Network.dyn_peer[133] 	lookupTimeSig:mean 	3.2357142857143
scalar Network.dyn_peer[133] 	lookupStabilitySig:mean 	0.93179555307142
scalar Network.dyn_peer[133] 	lookupHopsSig:mean 	31.428571428571
scalar Network.dyn_peer[134] 	lookupTimeSig:mean 	3.18
scalar Network.dyn_peer[134] 	lookupStabilitySig:mean 	0.93464056635275
scalar Network.dyn_peer[134] 	lookupHopsSig:mean 	30.866666666667
scalar Network.dyn_peer[135] 	lookupTimeSig:mean 	3.2777777777778
scalar Network.dyn_peer[135] 	lookupStabilitySig:mean 	0.94125724783711
scalar Network.dyn_peer[135] 	lookupHopsSig:mean 	31.833333333333
scalar Network.dyn_peer[136] 	lookupTimeSig:mean 	2.7055555555556
scalar Network.dyn_peer[136] 	lookupStabilitySig:mean 	0.94672828990992
scalar Network.dyn_peer[136] 	lookupHopsSig:mean 	26.111111111111
scalar Network.dyn_peer[137] 	lookupTimeSig:mean 	4.1529411764706
scalar Network.dyn_peer[137] 	lookupStabilitySig:mean 	0.95324375620112
scalar Network.dyn_peer[137] 	lookupHopsSig:mean 	40.588235294118
scalar Network.dyn_peer[138] 	lookupTimeSig:mean 	2.625
scalar Network.dyn_peer[138] 	lookupStabilitySig:mean 	0.94683617788833
scalar Network.dyn_peer[138] 	lookupHopsSig:mean 	25.3
scalar Network.dyn_peer[139] 	lookupTimeSig:mean 	2.715
scalar Network.dyn_peer[139] 	lookupStabilitySig:mean 	0.95743202981539
scalar Network.dyn_peer[139] 	lookupHopsSig:mean 	26.2
scalar Network.dyn_peer[140] 	lookupTimeSig:mean 	2.05625
scalar Network.dyn_peer[140] 	lookupStabilitySig:mean 	0.94525178952608
scalar Network.dyn_peer[140] 	lookupHopsSig:mean 	19.625
scalar Network.dyn_peer[141] 	lookupTimeSig:mean 	3.2
scalar Network.dyn_peer[141] 	lookupStabilitySig:mean 	0.92529427812302
scalar Network.dyn_peer[141] 	lookupHopsSig:mean 	31.071428571429
scalar Network.dyn_peer[142] 	lookupTimeSig:mean 	3.0344827586207
scalar Network.dyn_peer[142] 	lookupStabilitySig:mean 	0.96511681218921
scalar Network.dyn_peer[142] 	lookupHopsSig:mean 	29.379310344828
scalar Network.dyn_peer[143] 	lookupTimeSig:mean 	3.4863636363636
scalar Network.dyn_peer[143] 	lookupStabilitySig:mean 	0.95248836035766
scalar Network.dyn_peer[143] 	lookupHopsSig:mean 	33.909090909091
scalar Network.dyn_peer[144] 	lookupTimeSig:mean 	3.9428571428571
scalar Network.dyn_peer[144] 	lookupStabilitySig:mean 	0.9552551722154
scalar Network.dyn_peer[144] 	lookupHopsSig:mean 	38.47619047619
scalar Network.dyn_peer[145] 	lookupTimeSig:mean 	4
scalar Network.dyn_peer[145] 	lookupStabilitySig:mean 	0.9447086898403
scalar Network.dyn_peer[145] 	lookupHopsSig:mean 	39.055555555556
scalar Network.dyn_peer[146] 	lookupTimeSig:mean 	2.7608695652174
scalar Network.dyn_peer[146] 	lookupStabilitySig:mean 	0.95742574678835
scalar Network.dyn_peer[146] 	lookupHopsSig:mean 	26.652173913043
scalar Network.dyn_peer[147] 	lookupTimeSig:mean 	3.84
scalar Network.dyn_peer[147] 	lookupStabilitySig:mean 	0.9364512574859
scalar Network.dyn_peer[147] 	lookupHopsSig:mean 	37.466666666667
scalar Network.dyn_peer[148] 	lookupTimeSig:mean 	3.1521739130435
scalar Network.dyn_peer[148] 	lookupStabilitySig:mean 	0.95566629707489
scalar Network.dyn_peer[148] 	lookupHopsSig:mean 	30.565217391304
scalar Network.dyn_peer[149] 	lookupTimeSig:mean 	3.904347826087
scalar Network.dyn_peer[149] 	lookupStabilitySig:mean 	0.95174919607361
scalar Network.dyn_peer[149] 	lookupHopsSig:mean 	38.086956521739
scalar Network.dyn_peer[150] 	lookupTimeSig:mean 	2.1
scalar Network.dyn_peer[150] 	lookupStabilitySig:mean 	0.89610295343612
scalar Network.dyn_peer[150] 	lookupHopsSig:mean 	20.142857142857
scalar Network.dyn_peer[151] 	lookupTimeSig:mean 	2.6590909090909
scalar Network.dyn_peer[151] 	lookupStabilitySig:mean 	0.95072582716503
scalar Network.dyn_peer[151] 	lookupHopsSig:mean 	25.636363636364
scalar Network.dyn_peer[152] 	lookupTimeSig:mean 	4.1909090909091
scalar Network.dyn_peer[152] 	lookupStabilitySig:mean 	0.95809782733506
scalar Network.dyn_peer[152] 	lookupHopsSig:mean 	40.954545454545
scalar Network.dyn_peer[153] 	lookupTimeSig:mean 	3.5846153846154
scalar Network.dyn_peer[153] 	lookupStabilitySig:mean 	0.93870066948092
scalar Network.dyn_peer[153] 	lookupHopsSig:mean 	34.923076923077
scalar Network.dyn_peer[154] 	lookupTimeSig:mean 	2.8789473684211
scalar Network.dyn_peer[154] 	lookupStabilitySig:mean 	0.94647131186273
scalar Network.dyn_peer[154] 	lookupHopsSig:mean 	27.842105263158
scalar Network.dyn_peer[155] 	lookupTimeSig:mean 	3.58
scalar Network.dyn_peer[155] 	lookupStabilitySig:mean 	0.94809194770642
scalar Network.dyn_peer[155] 	lookupHopsSig:mean 	34.85
scalar Network.dyn_peer[156] 	lookupTimeSig:mean 	3.1928571428571
scalar Network.dyn_peer[156] 	lookupStabilitySig:mean 	0.96465858018824
scalar Network.dyn_peer[156] 	lookupHopsSig:mean 	31
scalar Network.dyn_peer[157] 	lookupTimeSig:mean 	3.5411764705882
scalar Network.dyn_peer[157] 	lookupStabilitySig:mean 	0.95142600323786
scalar Network.dyn_peer[157] 	lookupHopsSig:mean 	34.470588235294
scalar Network.dyn_peer[158] 	lookupTimeSig:mean 	2.0571428571429
scalar Network.dyn_peer[158] 	lookupStabilitySig:mean 	0.93578287147518
scalar Network.dyn_peer[158] 	lookupHopsSig:mean 	19.642857142857
scalar Network.dyn_peer[159] 	lookupTimeSig:mean 	2.9470588235294
scalar Network.dyn_peer[159] 	lookupStabilitySig:mean 	0.9500815612264
scalar Network.dyn_peer[159] 	lookupHopsSig:mean 	28.529411764706
scalar Network.dyn_peer[160] 	lookupTimeSig:mean 	4.1285714285714
scalar Network.dyn_peer[160] 	lookupStabilitySig:mean 	0.94628503767308
scalar Network.dyn_peer[160] 	lookupHopsSig:mean 	40.357142857143
scalar Network.dyn_peer[161] 	lookupTimeSig:mean 	4.685
scalar Network.dyn_peer[161] 	lookupStabilitySig:mean 	0.95968613438308
scalar Network.dyn_peer[161] 	lookupHopsSig:mean 	45.9
scalar Network.dyn_peer[162] 	lookupTimeSig:mean 	3.1083333333333
scalar Network.dyn_peer[162] 	lookupStabilitySig:mean 	0.9647889964981
scalar Network.dyn_peer[162] 	lookupHopsSig:mean 	30.125
scalar Network.dyn_peer[163] 	lookupTimeSig:mean 	3.3882352941176
scalar Network.dyn_peer[163] 	lookupStabilitySig:mean 	0.93678006023059
scalar Network.dyn_peer[163] 	lookupHopsSig:mean 	32.941176470588
scalar Network.dyn_peer[164] 	lookupTimeSig:mean 	2.3777777777778
scalar Network.dyn_peer[164] 	lookupStabilitySig:mean 	0.96623674561097
scalar Network.dyn_peer[164] 	lookupHopsSig:mean 	22.814814814815
scalar Network.dyn_peer[165] 	lookupTimeSig:mean 	3.0190476190476
scalar Network.dyn_peer[165] 	lookupStabilitySig:mean 	0.947418183177
scalar Network.dyn_peer[165] 	lookupHopsSig:mean 	29.238095238095
scalar Network.dyn_peer[166] 	lookupTimeSig:mean 	3.325
scalar Network.dyn_peer[166] 	lookupStabilitySig:mean 	0.94106263414142
scalar Network.dyn_peer[166] 	lookupHopsSig:mean 	32.3125
scalar Network.dyn_peer[167] 	lookupTimeSig:mean 	2.2076923076923
scalar Network.dyn_peer[167] 	lookupStabilitySig:mean 	0.93779919763955
scalar Network.dyn_peer[167] 	lookupHopsSig:mean 	21.153846153846
scalar Network.dyn_peer[168] 	lookupTimeSig:mean 	2.8818181818182
scalar Network.dyn_peer[168] 	lookupStabilitySig:mean 	0.96182649004781
scalar Network.dyn_peer[168] 	lookupHopsSig:mean 	27.863636363636
scalar Network.dyn_peer[169] 	lookupTimeSig:mean 	4.2090909090909
scalar Network.dyn_peer[169] 	lookupStabilitySig:mean 	0.96310871350579
scalar Network.dyn_peer[169] 	lookupHopsSig:mean 	41.136363636364
scalar Network.dyn_peer[170] 	lookupTimeSig:mean 	3.5272727272727
scalar Network.dyn_peer[170] 	lookupStabilitySig:mean 	0.95394907455722
scalar Network.dyn_peer[170] 	lookupHopsSig:mean 	34.318181818182
scalar Network.dyn_peer[171] 	lookupTimeSig:mean 	3.3411764705882
scalar Network.dyn_peer[171] 	lookupStabilitySig:mean 	0.95070554332479
scalar Network.dyn_peer[171] 	lookupHopsSig:mean 	32.470588235294
scalar Network.dyn_peer[172] 	lookupTimeSig:mean 	3.5380952380952
scalar Network.dyn_peer[172] 	lookupStabilitySig:mean 	0.95686973661317
scalar Network.dyn_peer[172] 	lookupHopsSig:mean 	34.428571428571
scalar Network.dyn_peer[173] 	lookupTimeSig:mean 	3.452380952381
scalar Network.dyn_peer[173] 	lookupStabilitySig:mean 	0.95314542239621
scalar Network.dyn_peer[173] 	lookupHopsSig:mean 	33.571428571429
scalar Network.dyn_peer[174] 	lookupTimeSig:mean 	4.0272727272727
scalar Network.dyn_peer[174] 	lookupStabilitySig:mean 	0.96061330515129
scalar Network.dyn_peer[174] 	lookupHopsSig:mean 	39.318181818182
scalar Network.dyn_peer[175] 	lookupTimeSig:mean 	2.8571428571429
scalar Network.dyn_peer[175] 	lookupStabilitySig:mean 	0.94920036786546
scalar Network.dyn_peer[175] 	lookupHopsSig:mean 	27.619047619048
scalar Network.dyn_peer[176] 	lookupTimeSig:mean 	2.725
scalar Network.dyn_peer[176] 	lookupStabilitySig:mean 	0.94191651876705
scalar Network.dyn_peer[176] 	lookupHopsSig:mean 	26.333333333333
scalar Network.dyn_peer[177] 	lookupTimeSig:mean 	3.35
scalar Network.dyn_peer[177] 	lookupStabilitySig:mean 	0.9481429552349
scalar Network.dyn_peer[177] 	lookupHopsSig:mean 	32.555555555556
scalar Network.dyn_peer[178] 	lookupTimeSig:mean 	3.5333333333333
scalar Network.dyn_peer[178] 	lookupStabilitySig:mean 	0.9186051832512
scalar Network.dyn_peer[178] 	lookupHopsSig:mean 	34.444444444444
scalar Network.dyn_peer[179] 	lookupTimeSig:mean 	3.6411764705882
scalar Network.dyn_peer[179] 	lookupStabilitySig:mean 	0.9503057275707
scalar Network.dyn_peer[179] 	lookupHopsSig:mean 	35.470588235294
scalar Network.dyn_peer[180] 	lookupTimeSig:mean 	4.885
scalar Network.dyn_peer[180] 	lookupStabilitySig:mean 	0.95676293976139
scalar Network.dyn_peer[180] 	lookupHopsSig:mean 	47.9
scalar Network.dyn_peer[181] 	lookupTimeSig:mean 	3.6428571428571
scalar Network.dyn_peer[181] 	lookupStabilitySig:mean 	0.94900048335659
scalar Network.dyn_peer[181] 	lookupHopsSig:mean 	35.47619047619
scalar Network.dyn_peer[182] 	lookupTimeSig:mean 	3.7318181818182
scalar Network.dyn_peer[182] 	lookupStabilitySig:mean 	0.95464861291376
scalar Network.dyn_peer[182] 	lookupHopsSig:mean 	36.363636363636
scalar Network.dyn_peer[183] 	lookupTimeSig:mean 	5.60625
scalar Network.dyn_peer[183] 	lookupStabilitySig:mean 	0.95163642671832
scalar Network.dyn_peer[183] 	lookupHopsSig:mean 	55.125
scalar Network.dyn_peer[184] 	lookupTimeSig:mean 	3.0761904761905
scalar Network.dyn_peer[184] 	lookupStabilitySig:mean 	0.95400805753057
scalar Network.dyn_peer[184] 	lookupHopsSig:mean 	29.809523809524
scalar Network.dyn_peer[185] 	lookupTimeSig:mean 	2.78
scalar Network.dyn_peer[185] 	lookupStabilitySig:mean 	0.95374079379253
scalar Network.dyn_peer[185] 	lookupHopsSig:mean 	26.85
scalar Network.dyn_peer[186] 	lookupTimeSig:mean 	3.6307692307692
scalar Network.dyn_peer[186] 	lookupStabilitySig:mean 	0.94610193873254
scalar Network.dyn_peer[186] 	lookupHopsSig:mean 	35.384615384615
scalar Network.dyn_peer[187] 	lookupTimeSig:mean 	3.3030303030303
scalar Network.dyn_peer[187] 	lookupStabilitySig:mean 	0.96718806785066
scalar Network.dyn_peer[187] 	lookupHopsSig:mean 	32.060606060606
scalar Network.dyn_peer[188] 	lookupTimeSig:mean 	2.3941176470588
scalar Network.dyn_peer[188] 	lookupStabilitySig:mean 	0.9539221240728
scalar Network.dyn_peer[188] 	lookupHopsSig:mean 	23
scalar Network.dyn_peer[189] 	lookupTimeSig:mean 	3.352380952381
scalar Network.dyn_peer[189] 	lookupStabilitySig:mean 	0.96341395628129
scalar Network.dyn_peer[189] 	lookupHopsSig:mean 	32.571428571429
scalar Network.dyn_peer[190] 	lookupTimeSig:mean 	3.6210526315789
scalar Network.dyn_peer[190] 	lookupStabilitySig:mean 	0.95251571407885
scalar Network.dyn_peer[190] 	lookupHopsSig:mean 	35.263157894737
scalar Network.dyn_peer[191] 	lookupTimeSig:mean 	2.8833333333333
scalar Network.dyn_peer[191] 	lookupStabilitySig:mean 	0.9540612128201
scalar Network.dyn_peer[191] 	lookupHopsSig:mean 	27.888888888889
scalar Network.dyn_peer[192] 	lookupTimeSig:mean 	3.2333333333333
scalar Network.dyn_peer[192] 	lookupStabilitySig:mean 	0.95390847420398
scalar Network.dyn_peer[192] 	lookupHopsSig:mean 	31.416666666667
scalar Network.dyn_peer[193] 	lookupTimeSig:mean 	3.7925925925926
scalar Network.dyn_peer[193] 	lookupStabilitySig:mean 	0.96901207318943
scalar Network.dyn_peer[193] 	lookupHopsSig:mean 	36.962962962963
scalar Network.dyn_peer[194] 	lookupTimeSig:mean 	3.4705882352941
scalar Network.dyn_peer[194] 	lookupStabilitySig:mean 	0.94846075707499
scalar Network.dyn_peer[194] 	lookupHopsSig:mean 	33.764705882353
scalar Network.dyn_peer[195] 	lookupTimeSig:mean 	3.0071428571429
scalar Network.dyn_peer[195] 	lookupStabilitySig:mean 	0.94413714190679
scalar Network.dyn_peer[195] 	lookupHopsSig:mean 	29.142857142857
scalar Network.dyn_peer[196] 	lookupTimeSig:mean 	3.3210526315789
scalar Network.dyn_peer[196] 	lookupStabilitySig:mean 	0.95223780128627
scalar Network.dyn_peer[196] 	lookupHopsSig:mean 	32.263157894737
scalar Network.dyn_peer[197] 	lookupTimeSig:mean 	2.61875
scalar Network.dyn_peer[197] 	lookupStabilitySig:mean 	0.94773927453207
scalar Network.dyn_peer[197] 	lookupHopsSig:mean 	25.25
scalar Network.dyn_peer[198] 	lookupTimeSig:mean 	3.2681818181818
scalar Network.dyn_peer[198] 	lookupStabilitySig:mean 	0.96074138898588
scalar Network.dyn_peer[198] 	lookupHopsSig:mean 	31.727272727273
scalar Network.dyn_peer[199] 	lookupTimeSig:mean 	2.6588235294118
scalar Network.dyn_peer[199] 	lookupStabilitySig:mean 	0.95510164837298
scalar Network.dyn_peer[199] 	lookupHopsSig:mean 	25.647058823529
scalar Network.dyn_peer[200] 	lookupTimeSig:mean 	2.4090909090909
scalar Network.dyn_peer[200] 	lookupStabilitySig:mean 	0.95769279923248
scalar Network.dyn_peer[200] 	lookupHopsSig:mean 	23.136363636364
scalar Network.dyn_peer[201] 	lookupTimeSig:mean 	3.77
scalar Network.dyn_peer[201] 	lookupStabilitySig:mean 	0.94961380511522
scalar Network.dyn_peer[201] 	lookupHopsSig:mean 	36.8
scalar Network.dyn_peer[202] 	lookupTimeSig:mean 	2.7033333333333
scalar Network.dyn_peer[202] 	lookupStabilitySig:mean 	0.96886823629805
scalar Network.dyn_peer[202] 	lookupHopsSig:mean 	26.066666666667
scalar Network.dyn_peer[203] 	lookupTimeSig:mean 	3.5117647058824
scalar Network.dyn_peer[203] 	lookupStabilitySig:mean 	0.95660600926289
scalar Network.dyn_peer[203] 	lookupHopsSig:mean 	34.176470588235
scalar Network.dyn_peer[204] 	lookupTimeSig:mean 	2.3833333333333
scalar Network.dyn_peer[204] 	lookupStabilitySig:mean 	0.93466854840517
scalar Network.dyn_peer[204] 	lookupHopsSig:mean 	23
scalar Network.dyn_peer[205] 	lookupTimeSig:mean 	2.9407407407407
scalar Network.dyn_peer[205] 	lookupStabilitySig:mean 	0.96143244332375
scalar Network.dyn_peer[205] 	lookupHopsSig:mean 	28.444444444444
scalar Network.dyn_peer[206] 	lookupTimeSig:mean 	3.7333333333333
scalar Network.dyn_peer[206] 	lookupStabilitySig:mean 	0.94702114338676
scalar Network.dyn_peer[206] 	lookupHopsSig:mean 	36.4
scalar Network.dyn_peer[207] 	lookupTimeSig:mean 	3.53125
scalar Network.dyn_peer[207] 	lookupStabilitySig:mean 	0.95425413628982
scalar Network.dyn_peer[207] 	lookupHopsSig:mean 	34.375
scalar Network.dyn_peer[208] 	lookupTimeSig:mean 	4.3785714285714
scalar Network.dyn_peer[208] 	lookupStabilitySig:mean 	0.94910718024974
scalar Network.dyn_peer[208] 	lookupHopsSig:mean 	42.857142857143
scalar Network.dyn_peer[209] 	lookupTimeSig:mean 	3.92
scalar Network.dyn_peer[209] 	lookupStabilitySig:mean 	0.96324793916428
scalar Network.dyn_peer[209] 	lookupHopsSig:mean 	38.25
scalar Network.dyn_peer[210] 	lookupTimeSig:mean 	3.26
scalar Network.dyn_peer[210] 	lookupStabilitySig:mean 	0.95187866060684
scalar Network.dyn_peer[210] 	lookupHopsSig:mean 	31.666666666667
scalar Network.dyn_peer[211] 	lookupTimeSig:mean 	4.4105263157895
scalar Network.dyn_peer[211] 	lookupStabilitySig:mean 	0.9551180960537
scalar Network.dyn_peer[211] 	lookupHopsSig:mean 	43.157894736842
scalar Network.dyn_peer[212] 	lookupTimeSig:mean 	4.4055555555556
scalar Network.dyn_peer[212] 	lookupStabilitySig:mean 	0.95370922529966
scalar Network.dyn_peer[212] 	lookupHopsSig:mean 	43.111111111111
scalar Network.dyn_peer[213] 	lookupTimeSig:mean 	3.7647058823529
scalar Network.dyn_peer[213] 	lookupStabilitySig:mean 	0.95010578133823
scalar Network.dyn_peer[213] 	lookupHopsSig:mean 	36.705882352941
scalar Network.dyn_peer[214] 	lookupTimeSig:mean 	3.7409090909091
scalar Network.dyn_peer[214] 	lookupStabilitySig:mean 	0.96389889783776
scalar Network.dyn_peer[214] 	lookupHopsSig:mean 	36.454545454545
scalar Network.dyn_peer[215] 	lookupTimeSig:mean 	2.7090909090909
scalar Network.dyn_peer[215] 	lookupStabilitySig:mean 	0.96575490061448
scalar Network.dyn_peer[215] 	lookupHopsSig:mean 	26.136363636364
scalar Network.dyn_peer[216] 	lookupTimeSig:mean 	2.8727272727273
scalar Network.dyn_peer[216] 	lookupStabilitySig:mean 	0.96477239129573
scalar Network.dyn_peer[216] 	lookupHopsSig:mean 	27.772727272727
scalar Network.dyn_peer[217] 	lookupTimeSig:mean 	4.2166666666667
scalar Network.dyn_peer[217] 	lookupStabilitySig:mean 	0.96056651919692
scalar Network.dyn_peer[217] 	lookupHopsSig:mean 	41.208333333333
scalar Network.dyn_peer[218] 	lookupTimeSig:mean 	3.2703703703704
scalar Network.dyn_peer[218] 	lookupStabilitySig:mean 	0.97111800970958
scalar Network.dyn_peer[218] 	lookupHopsSig:mean 	31.740740740741
scalar Network.dyn_peer[219] 	lookupTimeSig:mean 	3.9857142857143
scalar Network.dyn_peer[219] 	lookupStabilitySig:mean 	0.91588143139545
scalar Network.dyn_peer[219] 	lookupHopsSig:mean 	39
scalar Network.dyn_peer[220] 	lookupTimeSig:mean 	3.1384615384615
scalar Network.dyn_peer[220] 	lookupStabilitySig:mean 	0.94668881093653
scalar Network.dyn_peer[220] 	lookupHopsSig:mean 	30.461538461538
scalar Network.dyn_peer[221] 	lookupTimeSig:mean 	3.2238095238095
scalar Network.dyn_peer[221] 	lookupStabilitySig:mean 	0.95797573562179
scalar Network.dyn_peer[221] 	lookupHopsSig:mean 	31.285714285714
scalar Network.dyn_peer[222] 	lookupTimeSig:mean 	3.8052631578947
scalar Network.dyn_peer[222] 	lookupStabilitySig:mean 	0.97159156042127
scalar Network.dyn_peer[222] 	lookupHopsSig:mean 	37.105263157895
scalar Network.dyn_peer[223] 	lookupTimeSig:mean 	2.955
scalar Network.dyn_peer[223] 	lookupStabilitySig:mean 	0.95597316962667
scalar Network.dyn_peer[223] 	lookupHopsSig:mean 	28.6
scalar Network.dyn_peer[224] 	lookupTimeSig:mean 	4.72
scalar Network.dyn_peer[224] 	lookupStabilitySig:mean 	0.93655990380794
scalar Network.dyn_peer[224] 	lookupHopsSig:mean 	46.3
scalar Network.dyn_peer[225] 	lookupTimeSig:mean 	2.875
scalar Network.dyn_peer[225] 	lookupStabilitySig:mean 	0.95234551315662
scalar Network.dyn_peer[225] 	lookupHopsSig:mean 	27.8125
scalar Network.dyn_peer[226] 	lookupTimeSig:mean 	3.25625
scalar Network.dyn_peer[226] 	lookupStabilitySig:mean 	0.96404588248697
scalar Network.dyn_peer[226] 	lookupHopsSig:mean 	31.625
scalar Network.dyn_peer[227] 	lookupTimeSig:mean 	2.6166666666667
scalar Network.dyn_peer[227] 	lookupStabilitySig:mean 	0.95580589291381
scalar Network.dyn_peer[227] 	lookupHopsSig:mean 	25.222222222222
scalar Network.dyn_peer[228] 	lookupTimeSig:mean 	2.9083333333333
scalar Network.dyn_peer[228] 	lookupStabilitySig:mean 	0.94554532327068
scalar Network.dyn_peer[228] 	lookupHopsSig:mean 	28.166666666667
scalar Network.dyn_peer[229] 	lookupTimeSig:mean 	3.2
scalar Network.dyn_peer[229] 	lookupStabilitySig:mean 	0.96883511209213
scalar Network.dyn_peer[229] 	lookupHopsSig:mean 	31.04347826087
scalar Network.dyn_peer[230] 	lookupTimeSig:mean 	4.28
scalar Network.dyn_peer[230] 	lookupStabilitySig:mean 	0.95872558369301
scalar Network.dyn_peer[230] 	lookupHopsSig:mean 	41.85
scalar Network.dyn_peer[231] 	lookupTimeSig:mean 	3.9166666666667
scalar Network.dyn_peer[231] 	lookupStabilitySig:mean 	0.96121710593191
scalar Network.dyn_peer[231] 	lookupHopsSig:mean 	38.25
scalar Network.dyn_peer[232] 	lookupTimeSig:mean 	3.25625
scalar Network.dyn_peer[232] 	lookupStabilitySig:mean 	0.95410457190883
scalar Network.dyn_peer[232] 	lookupHopsSig:mean 	31.625
scalar Network.dyn_peer[233] 	lookupTimeSig:mean 	3.3058823529412
scalar Network.dyn_peer[233] 	lookupStabilitySig:mean 	0.9619448087726
scalar Network.dyn_peer[233] 	lookupHopsSig:mean 	32.117647058824
scalar Network.dyn_peer[234] 	lookupTimeSig:mean 	2.52
scalar Network.dyn_peer[234] 	lookupStabilitySig:mean 	0.96972241574913
scalar Network.dyn_peer[234] 	lookupHopsSig:mean 	24.25
scalar Network.dyn_peer[235] 	lookupTimeSig:mean 	2.9260869565217
scalar Network.dyn_peer[235] 	lookupStabilitySig:mean 	0.97017183519758
scalar Network.dyn_peer[235] 	lookupHopsSig:mean 	28.304347826087
scalar Network.dyn_peer[236] 	lookupTimeSig:mean 	2.9333333333333
scalar Network.dyn_peer[236] 	lookupStabilitySig:mean 	0.95810581108422
scalar Network.dyn_peer[236] 	lookupHopsSig:mean 	28.380952380952
scalar Network.dyn_peer[237] 	lookupTimeSig:mean 	3.1894736842105
scalar Network.dyn_peer[237] 	lookupStabilitySig:mean 	0.95813908729408
scalar Network.dyn_peer[237] 	lookupHopsSig:mean 	30.947368421053
scalar Network.dyn_peer[238] 	lookupTimeSig:mean 	3.8296296296296
scalar Network.dyn_peer[238] 	lookupStabilitySig:mean 	0.96861310349777
scalar Network.dyn_peer[238] 	lookupHopsSig:mean 	37.333333333333
scalar Network.dyn_peer[239] 	lookupTimeSig:mean 	3.548
scalar Network.dyn_peer[239] 	lookupStabilitySig:mean 	0.96723045803607
scalar Network.dyn_peer[239] 	lookupHopsSig:mean 	34.52
scalar Network.dyn_peer[240] 	lookupTimeSig:mean 	3.1944444444444
scalar Network.dyn_peer[240] 	lookupStabilitySig:mean 	0.96107912676719
scalar Network.dyn_peer[240] 	lookupHopsSig:mean 	31
scalar Network.dyn_peer[241] 	lookupTimeSig:mean 	3.5818181818182
scalar Network.dyn_peer[241] 	lookupStabilitySig:mean 	0.96957714324394
scalar Network.dyn_peer[241] 	lookupHopsSig:mean 	34.863636363636
scalar Network.dyn_peer[242] 	lookupTimeSig:mean 	3.8333333333333
scalar Network.dyn_peer[242] 	lookupStabilitySig:mean 	0.97340372687904
scalar Network.dyn_peer[242] 	lookupHopsSig:mean 	37.366666666667
scalar Network.dyn_peer[243] 	lookupTimeSig:mean 	4.4388888888889
scalar Network.dyn_peer[243] 	lookupStabilitySig:mean 	0.96034563516474
scalar Network.dyn_peer[243] 	lookupHopsSig:mean 	43.444444444444
scalar Network.dyn_peer[244] 	lookupTimeSig:mean 	4.8047619047619
scalar Network.dyn_peer[244] 	lookupStabilitySig:mean 	0.96939597546034
scalar Network.dyn_peer[244] 	lookupHopsSig:mean 	47.095238095238
scalar Network.dyn_peer[245] 	lookupTimeSig:mean 	2.175
scalar Network.dyn_peer[245] 	lookupStabilitySig:mean 	0.9459181894587
scalar Network.dyn_peer[245] 	lookupHopsSig:mean 	20.833333333333
scalar Network.dyn_peer[246] 	lookupTimeSig:mean 	3.6037037037037
scalar Network.dyn_peer[246] 	lookupStabilitySig:mean 	0.97292658382557
scalar Network.dyn_peer[246] 	lookupHopsSig:mean 	35.074074074074
scalar Network.dyn_peer[247] 	lookupTimeSig:mean 	2.8857142857143
scalar Network.dyn_peer[247] 	lookupStabilitySig:mean 	0.96733590751787
scalar Network.dyn_peer[247] 	lookupHopsSig:mean 	27.892857142857
scalar Network.dyn_peer[248] 	lookupTimeSig:mean 	3
scalar Network.dyn_peer[248] 	lookupStabilitySig:mean 	0.95503485624989
scalar Network.dyn_peer[248] 	lookupHopsSig:mean 	29.066666666667
scalar Network.dyn_peer[249] 	lookupTimeSig:mean 	4.565
scalar Network.dyn_peer[249] 	lookupStabilitySig:mean 	0.9621690887725
scalar Network.dyn_peer[249] 	lookupHopsSig:mean 	44.7
scalar Network.dyn_peer[250] 	lookupTimeSig:mean 	3.14
scalar Network.dyn_peer[250] 	lookupStabilitySig:mean 	0.95714177701157
scalar Network.dyn_peer[250] 	lookupHopsSig:mean 	30.45
scalar Network.dyn_peer[251] 	lookupTimeSig:mean 	4.1409090909091
scalar Network.dyn_peer[251] 	lookupStabilitySig:mean 	0.96413049520925
scalar Network.dyn_peer[251] 	lookupHopsSig:mean 	40.454545454545
scalar Network.dyn_peer[252] 	lookupTimeSig:mean 	1.9235294117647
scalar Network.dyn_peer[252] 	lookupStabilitySig:mean 	0.96316943199182
scalar Network.dyn_peer[252] 	lookupHopsSig:mean 	18.294117647059
scalar Network.dyn_peer[253] 	lookupTimeSig:mean 	3.1444444444444
scalar Network.dyn_peer[253] 	lookupStabilitySig:mean 	0.96695988974534
scalar Network.dyn_peer[253] 	lookupHopsSig:mean 	30.5
scalar Network.dyn_peer[254] 	lookupTimeSig:mean 	3.5952380952381
scalar Network.dyn_peer[254] 	lookupStabilitySig:mean 	0.95820002186866
scalar Network.dyn_peer[254] 	lookupHopsSig:mean 	35
scalar Network.dyn_peer[255] 	lookupTimeSig:mean 	3.25
scalar Network.dyn_peer[255] 	lookupStabilitySig:mean 	0.96666383564298
scalar Network.dyn_peer[255] 	lookupHopsSig:mean 	31.5625
scalar Network.dyn_peer[256] 	lookupTimeSig:mean 	4.30625
scalar Network.dyn_peer[256] 	lookupStabilitySig:mean 	0.95485301088775
scalar Network.dyn_peer[256] 	lookupHopsSig:mean 	42.125
scalar Network.dyn_peer[257] 	lookupTimeSig:mean 	3.5294117647059
scalar Network.dyn_peer[257] 	lookupStabilitySig:mean 	0.97275807710727
scalar Network.dyn_peer[257] 	lookupHopsSig:mean 	34.323529411765
scalar Network.dyn_peer[258] 	lookupTimeSig:mean 	3.5571428571429
scalar Network.dyn_peer[258] 	lookupStabilitySig:mean 	0.96003621439671
scalar Network.dyn_peer[258] 	lookupHopsSig:mean 	34.619047619048
scalar Network.dyn_peer[259] 	lookupTimeSig:mean 	4.5428571428571
scalar Network.dyn_peer[259] 	lookupStabilitySig:mean 	0.97045939562044
scalar Network.dyn_peer[259] 	lookupHopsSig:mean 	44.464285714286
scalar Network.dyn_peer[260] 	lookupTimeSig:mean 	3.3157894736842
scalar Network.dyn_peer[260] 	lookupStabilitySig:mean 	0.96267992499481
scalar Network.dyn_peer[260] 	lookupHopsSig:mean 	32.210526315789
scalar Network.dyn_peer[261] 	lookupTimeSig:mean 	4.1652173913043
scalar Network.dyn_peer[261] 	lookupStabilitySig:mean 	0.96989271880897
scalar Network.dyn_peer[261] 	lookupHopsSig:mean 	40.695652173913
scalar Network.dyn_peer[262] 	lookupTimeSig:mean 	4.59
scalar Network.dyn_peer[262] 	lookupStabilitySig:mean 	0.95653892504051
scalar Network.dyn_peer[262] 	lookupHopsSig:mean 	44.95
scalar Network.dyn_peer[263] 	lookupTimeSig:mean 	2.6136363636364
scalar Network.dyn_peer[263] 	lookupStabilitySig:mean 	0.96361124295403
scalar Network.dyn_peer[263] 	lookupHopsSig:mean 	25.181818181818
scalar Network.dyn_peer[264] 	lookupTimeSig:mean 	2.5083333333333
scalar Network.dyn_peer[264] 	lookupStabilitySig:mean 	0.94215009951343
scalar Network.dyn_peer[264] 	lookupHopsSig:mean 	24.166666666667
scalar Network.dyn_peer[265] 	lookupTimeSig:mean 	2.865
scalar Network.dyn_peer[265] 	lookupStabilitySig:mean 	0.96504092704272
scalar Network.dyn_peer[265] 	lookupHopsSig:mean 	27.7
scalar Network.dyn_peer[266] 	lookupTimeSig:mean 	3.66
scalar Network.dyn_peer[266] 	lookupStabilitySig:mean 	0.95734282804963
scalar Network.dyn_peer[266] 	lookupHopsSig:mean 	35.666666666667
scalar Network.dyn_peer[267] 	lookupTimeSig:mean 	2.9529411764706
scalar Network.dyn_peer[267] 	lookupStabilitySig:mean 	0.96314818472328
scalar Network.dyn_peer[267] 	lookupHopsSig:mean 	28.588235294118
scalar Network.dyn_peer[268] 	lookupTimeSig:mean 	4.4611111111111
scalar Network.dyn_peer[268] 	lookupStabilitySig:mean 	0.96376744969489
scalar Network.dyn_peer[268] 	lookupHopsSig:mean 	43.666666666667
scalar Network.dyn_peer[269] 	lookupTimeSig:mean 	4.0142857142857
scalar Network.dyn_peer[269] 	lookupStabilitySig:mean 	0.95481405640021
scalar Network.dyn_peer[269] 	lookupHopsSig:mean 	39.214285714286
scalar Network.dyn_peer[270] 	lookupTimeSig:mean 	3.7571428571429
scalar Network.dyn_peer[270] 	lookupStabilitySig:mean 	0.9723639688122
scalar Network.dyn_peer[270] 	lookupHopsSig:mean 	36.619047619048
scalar Network.dyn_peer[271] 	lookupTimeSig:mean 	3.6466666666667
scalar Network.dyn_peer[271] 	lookupStabilitySig:mean 	0.95367059006045
scalar Network.dyn_peer[271] 	lookupHopsSig:mean 	35.533333333333
scalar Network.dyn_peer[272] 	lookupTimeSig:mean 	3.3947368421053
scalar Network.dyn_peer[272] 	lookupStabilitySig:mean 	0.96336165206556
scalar Network.dyn_peer[272] 	lookupHopsSig:mean 	33
scalar Network.dyn_peer[273] 	lookupTimeSig:mean 	4.0058823529412
scalar Network.dyn_peer[273] 	lookupStabilitySig:mean 	0.96115582271972
scalar Network.dyn_peer[273] 	lookupHopsSig:mean 	39.117647058824
scalar Network.dyn_peer[274] 	lookupTimeSig:mean 	3.335
scalar Network.dyn_peer[274] 	lookupStabilitySig:mean 	0.97118169513415
scalar Network.dyn_peer[274] 	lookupHopsSig:mean 	32.4
scalar Network.dyn_peer[275] 	lookupTimeSig:mean 	4.1611111111111
scalar Network.dyn_peer[275] 	lookupStabilitySig:mean 	0.95798953744169
scalar Network.dyn_peer[275] 	lookupHopsSig:mean 	40.666666666667
scalar Network.dyn_peer[276] 	lookupTimeSig:mean 	3.9538461538462
scalar Network.dyn_peer[276] 	lookupStabilitySig:mean 	0.96594636453889
scalar Network.dyn_peer[276] 	lookupHopsSig:mean 	38.615384615385
scalar Network.dyn_peer[277] 	lookupTimeSig:mean 	2.3272727272727
scalar Network.dyn_peer[277] 	lookupStabilitySig:mean 	0.9445798390291
scalar Network.dyn_peer[277] 	lookupHopsSig:mean 	22.363636363636
scalar Network.dyn_peer[278] 	lookupTimeSig:mean 	3.7875
scalar Network.dyn_peer[278] 	lookupStabilitySig:mean 	0.96129989017209
scalar Network.dyn_peer[278] 	lookupHopsSig:mean 	36.9375
scalar Network.dyn_peer[279] 	lookupTimeSig:mean 	3.8518518518519
scalar Network.dyn_peer[279] 	lookupStabilitySig:mean 	0.96675881575276
scalar Network.dyn_peer[279] 	lookupHopsSig:mean 	37.555555555556
scalar Network.dyn_peer[280] 	lookupTimeSig:mean 	4.4133333333333
scalar Network.dyn_peer[280] 	lookupStabilitySig:mean 	0.96333862553972
scalar Network.dyn_peer[280] 	lookupHopsSig:mean 	43.2
scalar Network.dyn_peer[281] 	lookupTimeSig:mean 	3.3739130434783
scalar Network.dyn_peer[281] 	lookupStabilitySig:mean 	0.96841227345462
scalar Network.dyn_peer[281] 	lookupHopsSig:mean 	32.782608695652
scalar Network.dyn_peer[282] 	lookupTimeSig:mean 	3.164
scalar Network.dyn_peer[282] 	lookupStabilitySig:mean 	0.9685949696647
scalar Network.dyn_peer[282] 	lookupHopsSig:mean 	30.68
scalar Network.dyn_peer[283] 	lookupTimeSig:mean 	4.1928571428571
scalar Network.dyn_peer[283] 	lookupStabilitySig:mean 	0.96168715786189
scalar Network.dyn_peer[283] 	lookupHopsSig:mean 	41
scalar Network.dyn_peer[284] 	lookupTimeSig:mean 	3.47
scalar Network.dyn_peer[284] 	lookupStabilitySig:mean 	0.96665307262447
scalar Network.dyn_peer[284] 	lookupHopsSig:mean 	33.75
scalar Network.dyn_peer[285] 	lookupTimeSig:mean 	3.4875
scalar Network.dyn_peer[285] 	lookupStabilitySig:mean 	0.95816898866906
scalar Network.dyn_peer[285] 	lookupHopsSig:mean 	33.9375
scalar Network.dyn_peer[286] 	lookupTimeSig:mean 	3.6866666666667
scalar Network.dyn_peer[286] 	lookupStabilitySig:mean 	0.95921617982288
scalar Network.dyn_peer[286] 	lookupHopsSig:mean 	35.933333333333
scalar Network.dyn_peer[287] 	lookupTimeSig:mean 	4.2047619047619
scalar Network.dyn_peer[287] 	lookupStabilitySig:mean 	0.96049321112445
scalar Network.dyn_peer[287] 	lookupHopsSig:mean 	41.095238095238
scalar Network.dyn_peer[288] 	lookupTimeSig:mean 	4.0142857142857
scalar Network.dyn_peer[288] 	lookupStabilitySig:mean 	0.94594788305195
scalar Network.dyn_peer[288] 	lookupHopsSig:mean 	39.214285714286
scalar Network.dyn_peer[289] 	lookupTimeSig:mean 	2.1266666666667
scalar Network.dyn_peer[289] 	lookupStabilitySig:mean 	0.95705609861761
scalar Network.dyn_peer[289] 	lookupHopsSig:mean 	20.333333333333
scalar Network.dyn_peer[290] 	lookupTimeSig:mean 	3.39375
scalar Network.dyn_peer[290] 	lookupStabilitySig:mean 	0.9580720718659
scalar Network.dyn_peer[290] 	lookupHopsSig:mean 	33
scalar Network.dyn_peer[291] 	lookupTimeSig:mean 	3.625
scalar Network.dyn_peer[291] 	lookupStabilitySig:mean 	0.97173355628426
scalar Network.dyn_peer[291] 	lookupHopsSig:mean 	35.291666666667
scalar Network.dyn_peer[292] 	lookupTimeSig:mean 	4.3909090909091
scalar Network.dyn_peer[292] 	lookupStabilitySig:mean 	0.96797305801672
scalar Network.dyn_peer[292] 	lookupHopsSig:mean 	42.954545454545
scalar Network.dyn_peer[293] 	lookupTimeSig:mean 	4.2423076923077
scalar Network.dyn_peer[293] 	lookupStabilitySig:mean 	0.97581928029943
scalar Network.dyn_peer[293] 	lookupHopsSig:mean 	41.461538461538
scalar Network.dyn_peer[294] 	lookupTimeSig:mean 	4.59375
scalar Network.dyn_peer[294] 	lookupStabilitySig:mean 	0.95558262524719
scalar Network.dyn_peer[294] 	lookupHopsSig:mean 	45
scalar Network.dyn_peer[295] 	lookupTimeSig:mean 	3.1714285714286
scalar Network.dyn_peer[295] 	lookupStabilitySig:mean 	0.96596368799163
scalar Network.dyn_peer[295] 	lookupHopsSig:mean 	30.761904761905
scalar Network.dyn_peer[296] 	lookupTimeSig:mean 	2.63
scalar Network.dyn_peer[296] 	lookupStabilitySig:mean 	0.97399568038527
scalar Network.dyn_peer[296] 	lookupHopsSig:mean 	25.35
scalar Network.dyn_peer[297] 	lookupTimeSig:mean 	2.8826086956522
scalar Network.dyn_peer[297] 	lookupStabilitySig:mean 	0.9657037459901
scalar Network.dyn_peer[297] 	lookupHopsSig:mean 	27.869565217391
scalar Network.dyn_peer[298] 	lookupTimeSig:mean 	3.585
scalar Network.dyn_peer[298] 	lookupStabilitySig:mean 	0.97386909280904
scalar Network.dyn_peer[298] 	lookupHopsSig:mean 	34.9
scalar Network.dyn_peer[299] 	lookupTimeSig:mean 	3.5090909090909
scalar Network.dyn_peer[299] 	lookupStabilitySig:mean 	0.96053846904331
scalar Network.dyn_peer[299] 	lookupHopsSig:mean 	34.181818181818
scalar Network.dyn_peer[300] 	lookupTimeSig:mean 	3.464
scalar Network.dyn_peer[300] 	lookupStabilitySig:mean 	0.9675279866904
scalar Network.dyn_peer[300] 	lookupHopsSig:mean 	33.68
scalar Network.dyn_peer[301] 	lookupTimeSig:mean 	3.4636363636364
scalar Network.dyn_peer[301] 	lookupStabilitySig:mean 	0.94835391064936
scalar Network.dyn_peer[301] 	lookupHopsSig:mean 	33.727272727273
scalar Network.dyn_peer[302] 	lookupTimeSig:mean 	4.13125
scalar Network.dyn_peer[302] 	lookupStabilitySig:mean 	0.95908842539939
scalar Network.dyn_peer[302] 	lookupHopsSig:mean 	40.375
scalar Network.dyn_peer[303] 	lookupTimeSig:mean 	3.0333333333333
scalar Network.dyn_peer[303] 	lookupStabilitySig:mean 	0.96133640698261
scalar Network.dyn_peer[303] 	lookupHopsSig:mean 	29.388888888889
scalar Network.dyn_peer[304] 	lookupTimeSig:mean 	4.34
scalar Network.dyn_peer[304] 	lookupStabilitySig:mean 	0.97117611924186
scalar Network.dyn_peer[304] 	lookupHopsSig:mean 	42.44
scalar Network.dyn_peer[305] 	lookupTimeSig:mean 	3.6384615384615
scalar Network.dyn_peer[305] 	lookupStabilitySig:mean 	0.97917031663774
scalar Network.dyn_peer[305] 	lookupHopsSig:mean 	35.423076923077
scalar Network.dyn_peer[306] 	lookupTimeSig:mean 	3.7461538461538
scalar Network.dyn_peer[306] 	lookupStabilitySig:mean 	0.96988921601755
scalar Network.dyn_peer[306] 	lookupHopsSig:mean 	36.538461538462
scalar Network.dyn_peer[307] 	lookupTimeSig:mean 	3.10625
scalar Network.dyn_peer[307] 	lookupStabilitySig:mean 	0.95653892550035
scalar Network.dyn_peer[307] 	lookupHopsSig:mean 	30.125
scalar Network.dyn_peer[308] 	lookupTimeSig:mean 	4.11875
scalar Network.dyn_peer[308] 	lookupStabilitySig:mean 	0.96080523136334
scalar Network.dyn_peer[308] 	lookupHopsSig:mean 	40.25
scalar Network.dyn_peer[309] 	lookupTimeSig:mean 	4.2705882352941
scalar Network.dyn_peer[309] 	lookupStabilitySig:mean 	0.95853740511024
scalar Network.dyn_peer[309] 	lookupHopsSig:mean 	41.764705882353
scalar Network.dyn_peer[310] 	lookupTimeSig:mean 	2.5583333333333
scalar Network.dyn_peer[310] 	lookupStabilitySig:mean 	0.95948298671283
scalar Network.dyn_peer[310] 	lookupHopsSig:mean 	24.666666666667
scalar Network.dyn_peer[311] 	lookupTimeSig:mean 	2.9928571428571
scalar Network.dyn_peer[311] 	lookupStabilitySig:mean 	0.9624188788335
scalar Network.dyn_peer[311] 	lookupHopsSig:mean 	29
scalar Network.dyn_peer[312] 	lookupTimeSig:mean 	3.8521739130435
scalar Network.dyn_peer[312] 	lookupStabilitySig:mean 	0.97286061673557
scalar Network.dyn_peer[312] 	lookupHopsSig:mean 	37.565217391304
scalar Network.dyn_peer[313] 	lookupTimeSig:mean 	3.3105263157895
scalar Network.dyn_peer[313] 	lookupStabilitySig:mean 	0.96789779749969
scalar Network.dyn_peer[313] 	lookupHopsSig:mean 	32.157894736842
scalar Network.dyn_peer[314] 	lookupTimeSig:mean 	3.7388888888889
scalar Network.dyn_peer[314] 	lookupStabilitySig:mean 	0.96215221187514
scalar Network.dyn_peer[314] 	lookupHopsSig:mean 	36.444444444444
scalar Network.dyn_peer[315] 	lookupTimeSig:mean 	3.65
scalar Network.dyn_peer[315] 	lookupStabilitySig:mean 	0.96444352602703
scalar Network.dyn_peer[315] 	lookupHopsSig:mean 	35.5625
scalar Network.dyn_peer[316] 	lookupTimeSig:mean 	3.7227272727273
scalar Network.dyn_peer[316] 	lookupStabilitySig:mean 	0.96294628327649
scalar Network.dyn_peer[316] 	lookupHopsSig:mean 	36.272727272727
scalar Network.dyn_peer[317] 	lookupTimeSig:mean 	5.1
scalar Network.dyn_peer[317] 	lookupStabilitySig:mean 	0.96251549698146
scalar Network.dyn_peer[317] 	lookupHopsSig:mean 	50.047619047619
scalar Network.dyn_peer[318] 	lookupTimeSig:mean 	3.8863636363636
scalar Network.dyn_peer[318] 	lookupStabilitySig:mean 	0.96552822336724
scalar Network.dyn_peer[318] 	lookupHopsSig:mean 	37.909090909091
scalar Network.dyn_peer[319] 	lookupTimeSig:mean 	4.1352941176471
scalar Network.dyn_peer[319] 	lookupStabilitySig:mean 	0.96838582016062
scalar Network.dyn_peer[319] 	lookupHopsSig:mean 	40.411764705882
scalar Network.dyn_peer[320] 	lookupTimeSig:mean 	2.5434782608696
scalar Network.dyn_peer[320] 	lookupStabilitySig:mean 	0.97240604504781
scalar Network.dyn_peer[320] 	lookupHopsSig:mean 	24.478260869565
scalar Network.dyn_peer[321] 	lookupTimeSig:mean 	3.6
scalar Network.dyn_peer[321] 	lookupStabilitySig:mean 	0.97305875260887
scalar Network.dyn_peer[321] 	lookupHopsSig:mean 	35.055555555556
scalar Network.dyn_peer[322] 	lookupTimeSig:mean 	3.5888888888889
scalar Network.dyn_peer[322] 	lookupStabilitySig:mean 	0.96181422396977
scalar Network.dyn_peer[322] 	lookupHopsSig:mean 	34.944444444444
scalar Network.dyn_peer[323] 	lookupTimeSig:mean 	3.7933333333333
scalar Network.dyn_peer[323] 	lookupStabilitySig:mean 	0.95714298871656
scalar Network.dyn_peer[323] 	lookupHopsSig:mean 	37
scalar Network.dyn_peer[324] 	lookupTimeSig:mean 	4.7764705882353
scalar Network.dyn_peer[324] 	lookupStabilitySig:mean 	0.95904827139833
scalar Network.dyn_peer[324] 	lookupHopsSig:mean 	46.823529411765
scalar Network.dyn_peer[325] 	lookupTimeSig:mean 	4.1333333333333
scalar Network.dyn_peer[325] 	lookupStabilitySig:mean 	0.96210336735627
scalar Network.dyn_peer[325] 	lookupHopsSig:mean 	40.416666666667
scalar Network.dyn_peer[326] 	lookupTimeSig:mean 	3.8578947368421
scalar Network.dyn_peer[326] 	lookupStabilitySig:mean 	0.96701725577249
scalar Network.dyn_peer[326] 	lookupHopsSig:mean 	37.631578947368
scalar Network.dyn_peer[327] 	lookupTimeSig:mean 	3.7733333333333
scalar Network.dyn_peer[327] 	lookupStabilitySig:mean 	0.95972302025184
scalar Network.dyn_peer[327] 	lookupHopsSig:mean 	36.8
scalar Network.dyn_peer[328] 	lookupTimeSig:mean 	3.59375
scalar Network.dyn_peer[328] 	lookupStabilitySig:mean 	0.95460726867896
scalar Network.dyn_peer[328] 	lookupHopsSig:mean 	35
scalar Network.dyn_peer[329] 	lookupTimeSig:mean 	3.8741935483871
scalar Network.dyn_peer[329] 	lookupStabilitySig:mean 	0.97481929372636
scalar Network.dyn_peer[329] 	lookupHopsSig:mean 	37.774193548387
scalar Network.dyn_peer[330] 	lookupTimeSig:mean 	3.225
scalar Network.dyn_peer[330] 	lookupStabilitySig:mean 	0.96498060610611
scalar Network.dyn_peer[330] 	lookupHopsSig:mean 	31.3125
scalar Network.dyn_peer[331] 	lookupTimeSig:mean 	4.5964285714286
scalar Network.dyn_peer[331] 	lookupStabilitySig:mean 	0.97319198261747
scalar Network.dyn_peer[331] 	lookupHopsSig:mean 	45
scalar Network.dyn_peer[332] 	lookupTimeSig:mean 	3.5588235294118
scalar Network.dyn_peer[332] 	lookupStabilitySig:mean 	0.95954237286659
scalar Network.dyn_peer[332] 	lookupHopsSig:mean 	34.647058823529
scalar Network.dyn_peer[333] 	lookupTimeSig:mean 	3.7
scalar Network.dyn_peer[333] 	lookupStabilitySig:mean 	0.95511635209744
scalar Network.dyn_peer[333] 	lookupHopsSig:mean 	36.066666666667
scalar Network.dyn_peer[334] 	lookupTimeSig:mean 	2.4357142857143
scalar Network.dyn_peer[334] 	lookupStabilitySig:mean 	0.96172636381484
scalar Network.dyn_peer[334] 	lookupHopsSig:mean 	23.428571428571
scalar Network.dyn_peer[335] 	lookupTimeSig:mean 	3.3655172413793
scalar Network.dyn_peer[335] 	lookupStabilitySig:mean 	0.97621254286536
scalar Network.dyn_peer[335] 	lookupHopsSig:mean 	32.689655172414
scalar Network.dyn_peer[336] 	lookupTimeSig:mean 	3.9142857142857
scalar Network.dyn_peer[336] 	lookupStabilitySig:mean 	0.97448771093817
scalar Network.dyn_peer[336] 	lookupHopsSig:mean 	38.190476190476
scalar Network.dyn_peer[337] 	lookupTimeSig:mean 	4.0857142857143
scalar Network.dyn_peer[337] 	lookupStabilitySig:mean 	0.9577087426026
scalar Network.dyn_peer[337] 	lookupHopsSig:mean 	39.928571428571
scalar Network.dyn_peer[338] 	lookupTimeSig:mean 	3.3173913043478
scalar Network.dyn_peer[338] 	lookupStabilitySig:mean 	0.97038639537261
scalar Network.dyn_peer[338] 	lookupHopsSig:mean 	32.217391304348
scalar Network.dyn_peer[339] 	lookupTimeSig:mean 	4.065
scalar Network.dyn_peer[339] 	lookupStabilitySig:mean 	0.96756034416612
scalar Network.dyn_peer[339] 	lookupHopsSig:mean 	39.7
scalar Network.dyn_peer[340] 	lookupTimeSig:mean 	3.925
scalar Network.dyn_peer[340] 	lookupStabilitySig:mean 	0.97272272664122
scalar Network.dyn_peer[340] 	lookupHopsSig:mean 	38.3
scalar Network.dyn_peer[341] 	lookupTimeSig:mean 	3.3384615384615
scalar Network.dyn_peer[341] 	lookupStabilitySig:mean 	0.96588929916302
scalar Network.dyn_peer[341] 	lookupHopsSig:mean 	32.461538461538
scalar Network.dyn_peer[342] 	lookupTimeSig:mean 	4.1
scalar Network.dyn_peer[342] 	lookupStabilitySig:mean 	0.96781880193804
scalar Network.dyn_peer[342] 	lookupHopsSig:mean 	40.055555555556
scalar Network.dyn_peer[343] 	lookupTimeSig:mean 	3.4181818181818
scalar Network.dyn_peer[343] 	lookupStabilitySig:mean 	0.97012310512152
scalar Network.dyn_peer[343] 	lookupHopsSig:mean 	33.227272727273
scalar Network.dyn_peer[344] 	lookupTimeSig:mean 	4.185
scalar Network.dyn_peer[344] 	lookupStabilitySig:mean 	0.96705602323636
scalar Network.dyn_peer[344] 	lookupHopsSig:mean 	40.9
scalar Network.dyn_peer[345] 	lookupTimeSig:mean 	3.0913043478261
scalar Network.dyn_peer[345] 	lookupStabilitySig:mean 	0.97215220726945
scalar Network.dyn_peer[345] 	lookupHopsSig:mean 	29.95652173913
scalar Network.dyn_peer[346] 	lookupTimeSig:mean 	4.5230769230769
scalar Network.dyn_peer[346] 	lookupStabilitySig:mean 	0.97140253831346
scalar Network.dyn_peer[346] 	lookupHopsSig:mean 	44.269230769231
scalar Network.dyn_peer[347] 	lookupTimeSig:mean 	3.0181818181818
scalar Network.dyn_peer[347] 	lookupStabilitySig:mean 	0.94697340941903
scalar Network.dyn_peer[347] 	lookupHopsSig:mean 	29.272727272727
scalar Network.dyn_peer[348] 	lookupTimeSig:mean 	3.9
scalar Network.dyn_peer[348] 	lookupStabilitySig:mean 	0.97512777325505
scalar Network.dyn_peer[348] 	lookupHopsSig:mean 	38.034482758621
scalar Network.dyn_peer[349] 	lookupTimeSig:mean 	5.35
scalar Network.dyn_peer[349] 	lookupStabilitySig:mean 	0.96248031035066
scalar Network.dyn_peer[349] 	lookupHopsSig:mean 	52.571428571429
scalar Network.dyn_peer[350] 	lookupTimeSig:mean 	3.0454545454545
scalar Network.dyn_peer[350] 	lookupStabilitySig:mean 	0.9673240354327
scalar Network.dyn_peer[350] 	lookupHopsSig:mean 	29.5
scalar Network.dyn_peer[351] 	lookupTimeSig:mean 	3.375
scalar Network.dyn_peer[351] 	lookupStabilitySig:mean 	0.9456421820214
scalar Network.dyn_peer[351] 	lookupHopsSig:mean 	32.875
scalar Network.dyn_peer[352] 	lookupTimeSig:mean 	3.7
scalar Network.dyn_peer[352] 	lookupStabilitySig:mean 	0.94293413144935
scalar Network.dyn_peer[352] 	lookupHopsSig:mean 	36.142857142857
scalar Network.dyn_peer[353] 	lookupTimeSig:mean 	3.836
scalar Network.dyn_peer[353] 	lookupStabilitySig:mean 	0.97637604963966
scalar Network.dyn_peer[353] 	lookupHopsSig:mean 	37.4
scalar Network.dyn_peer[354] 	lookupTimeSig:mean 	3.6884615384615
scalar Network.dyn_peer[354] 	lookupStabilitySig:mean 	0.97109551065548
scalar Network.dyn_peer[354] 	lookupHopsSig:mean 	35.923076923077
scalar Network.dyn_peer[355] 	lookupTimeSig:mean 	3.825
scalar Network.dyn_peer[355] 	lookupStabilitySig:mean 	0.9600606137974
scalar Network.dyn_peer[355] 	lookupHopsSig:mean 	37.3125
scalar Network.dyn_peer[356] 	lookupTimeSig:mean 	4.83125
scalar Network.dyn_peer[356] 	lookupStabilitySig:mean 	0.97143652672821
scalar Network.dyn_peer[356] 	lookupHopsSig:mean 	47.375
scalar Network.dyn_peer[357] 	lookupTimeSig:mean 	4.81
scalar Network.dyn_peer[357] 	lookupStabilitySig:mean 	0.9704285191372
scalar Network.dyn_peer[357] 	lookupHopsSig:mean 	47.15
scalar Network.dyn_peer[358] 	lookupTimeSig:mean 	3.5071428571429
scalar Network.dyn_peer[358] 	lookupStabilitySig:mean 	0.97275226633896
scalar Network.dyn_peer[358] 	lookupHopsSig:mean 	34.142857142857
scalar Network.dyn_peer[359] 	lookupTimeSig:mean 	3.3375
scalar Network.dyn_peer[359] 	lookupStabilitySig:mean 	0.96642121812329
scalar Network.dyn_peer[359] 	lookupHopsSig:mean 	32.5
scalar Network.dyn_peer[360] 	lookupTimeSig:mean 	5.0615384615385
scalar Network.dyn_peer[360] 	lookupStabilitySig:mean 	0.97299493945096
scalar Network.dyn_peer[360] 	lookupHopsSig:mean 	49.692307692308
scalar Network.dyn_peer[361] 	lookupTimeSig:mean 	4.6941176470588
scalar Network.dyn_peer[361] 	lookupStabilitySig:mean 	0.96552044529851
scalar Network.dyn_peer[361] 	lookupHopsSig:mean 	46
scalar Network.dyn_peer[362] 	lookupTimeSig:mean 	3.3571428571429
scalar Network.dyn_peer[362] 	lookupStabilitySig:mean 	0.9691059755361
scalar Network.dyn_peer[362] 	lookupHopsSig:mean 	32.619047619048
scalar Network.dyn_peer[363] 	lookupTimeSig:mean 	3.7722222222222
scalar Network.dyn_peer[363] 	lookupStabilitySig:mean 	0.9624485791622
scalar Network.dyn_peer[363] 	lookupHopsSig:mean 	36.777777777778
scalar Network.dyn_peer[364] 	lookupTimeSig:mean 	4
scalar Network.dyn_peer[364] 	lookupStabilitySig:mean 	0.96734583569277
scalar Network.dyn_peer[364] 	lookupHopsSig:mean 	39.055555555556
scalar Network.dyn_peer[365] 	lookupTimeSig:mean 	4.75
scalar Network.dyn_peer[365] 	lookupStabilitySig:mean 	0.97236328206158
scalar Network.dyn_peer[365] 	lookupHopsSig:mean 	46.571428571429
scalar Network.dyn_peer[366] 	lookupTimeSig:mean 	3.2130434782609
scalar Network.dyn_peer[366] 	lookupStabilitySig:mean 	0.9676950637899
scalar Network.dyn_peer[366] 	lookupHopsSig:mean 	31.173913043478
scalar Network.dyn_peer[367] 	lookupTimeSig:mean 	3.2866666666667
scalar Network.dyn_peer[367] 	lookupStabilitySig:mean 	0.97266708652799
scalar Network.dyn_peer[367] 	lookupHopsSig:mean 	31.933333333333
scalar Network.dyn_peer[368] 	lookupTimeSig:mean 	3.04375
scalar Network.dyn_peer[368] 	lookupStabilitySig:mean 	0.96566181608068
scalar Network.dyn_peer[368] 	lookupHopsSig:mean 	29.5
scalar Network.dyn_peer[369] 	lookupTimeSig:mean 	4.4962962962963
scalar Network.dyn_peer[369] 	lookupStabilitySig:mean 	0.97311298367222
scalar Network.dyn_peer[369] 	lookupHopsSig:mean 	44
scalar Network.dyn_peer[370] 	lookupTimeSig:mean 	3.8235294117647
scalar Network.dyn_peer[370] 	lookupStabilitySig:mean 	0.96107381094685
scalar Network.dyn_peer[370] 	lookupHopsSig:mean 	37.294117647059
scalar Network.dyn_peer[371] 	lookupTimeSig:mean 	2.06
scalar Network.dyn_peer[371] 	lookupStabilitySig:mean 	0.97022251342423
scalar Network.dyn_peer[371] 	lookupHopsSig:mean 	19.7
scalar Network.dyn_peer[372] 	lookupTimeSig:mean 	3.3178571428571
scalar Network.dyn_peer[372] 	lookupStabilitySig:mean 	0.9800678180514
scalar Network.dyn_peer[372] 	lookupHopsSig:mean 	32.214285714286
scalar Network.dyn_peer[373] 	lookupTimeSig:mean 	4.2642857142857
scalar Network.dyn_peer[373] 	lookupStabilitySig:mean 	0.96126624150202
scalar Network.dyn_peer[373] 	lookupHopsSig:mean 	41.714285714286
scalar Network.dyn_peer[374] 	lookupTimeSig:mean 	2.355
scalar Network.dyn_peer[374] 	lookupStabilitySig:mean 	0.96526980809867
scalar Network.dyn_peer[374] 	lookupHopsSig:mean 	22.6
scalar Network.dyn_peer[375] 	lookupTimeSig:mean 	3.8263157894737
scalar Network.dyn_peer[375] 	lookupStabilitySig:mean 	0.97124982416005
scalar Network.dyn_peer[375] 	lookupHopsSig:mean 	37.315789473684
scalar Network.dyn_peer[376] 	lookupTimeSig:mean 	4.0789473684211
scalar Network.dyn_peer[376] 	lookupStabilitySig:mean 	0.97012571728249
scalar Network.dyn_peer[376] 	lookupHopsSig:mean 	39.842105263158
scalar Network.dyn_peer[377] 	lookupTimeSig:mean 	4.5136363636364
scalar Network.dyn_peer[377] 	lookupStabilitySig:mean 	0.9705353406078
scalar Network.dyn_peer[377] 	lookupHopsSig:mean 	44.181818181818
scalar Network.dyn_peer[378] 	lookupTimeSig:mean 	3.2
scalar Network.dyn_peer[378] 	lookupStabilitySig:mean 	0.97189160309853
scalar Network.dyn_peer[378] 	lookupHopsSig:mean 	31.04347826087
scalar Network.dyn_peer[379] 	lookupTimeSig:mean 	3.5090909090909
scalar Network.dyn_peer[379] 	lookupStabilitySig:mean 	0.97000124395973
scalar Network.dyn_peer[379] 	lookupHopsSig:mean 	34.136363636364
scalar Network.dyn_peer[380] 	lookupTimeSig:mean 	4.44
scalar Network.dyn_peer[380] 	lookupStabilitySig:mean 	0.94841758133844
scalar Network.dyn_peer[380] 	lookupHopsSig:mean 	43.5
scalar Network.dyn_peer[381] 	lookupTimeSig:mean 	3.3047619047619
scalar Network.dyn_peer[381] 	lookupStabilitySig:mean 	0.97034309773395
scalar Network.dyn_peer[381] 	lookupHopsSig:mean 	32.095238095238
scalar Network.dyn_peer[382] 	lookupTimeSig:mean 	2.6583333333333
scalar Network.dyn_peer[382] 	lookupStabilitySig:mean 	0.96930961159524
scalar Network.dyn_peer[382] 	lookupHopsSig:mean 	25.666666666667
scalar Network.dyn_peer[383] 	lookupTimeSig:mean 	3.6153846153846
scalar Network.dyn_peer[383] 	lookupStabilitySig:mean 	0.96076289714816
scalar Network.dyn_peer[383] 	lookupHopsSig:mean 	35.230769230769
scalar Network.dyn_peer[384] 	lookupTimeSig:mean 	4.528
scalar Network.dyn_peer[384] 	lookupStabilitySig:mean 	0.97066712457687
scalar Network.dyn_peer[384] 	lookupHopsSig:mean 	44.32
scalar Network.dyn_peer[385] 	lookupTimeSig:mean 	3.05
scalar Network.dyn_peer[385] 	lookupStabilitySig:mean 	0.94114347157301
scalar Network.dyn_peer[385] 	lookupHopsSig:mean 	29.625
scalar Network.dyn_peer[386] 	lookupTimeSig:mean 	2.6846153846154
scalar Network.dyn_peer[386] 	lookupStabilitySig:mean 	0.96243921472118
scalar Network.dyn_peer[386] 	lookupHopsSig:mean 	25.923076923077
scalar Network.dyn_peer[387] 	lookupTimeSig:mean 	3.3571428571429
scalar Network.dyn_peer[387] 	lookupStabilitySig:mean 	0.97154376743406
scalar Network.dyn_peer[387] 	lookupHopsSig:mean 	32.619047619048
scalar Network.dyn_peer[388] 	lookupTimeSig:mean 	3.5259259259259
scalar Network.dyn_peer[388] 	lookupStabilitySig:mean 	0.97371440974099
scalar Network.dyn_peer[388] 	lookupHopsSig:mean 	34.296296296296
scalar Network.dyn_peer[389] 	lookupTimeSig:mean 	4.556
scalar Network.dyn_peer[389] 	lookupStabilitySig:mean 	0.97416084654164
scalar Network.dyn_peer[389] 	lookupHopsSig:mean 	44.6
scalar Network.dyn_peer[390] 	lookupTimeSig:mean 	4.5222222222222
scalar Network.dyn_peer[390] 	lookupStabilitySig:mean 	0.97085090520516
scalar Network.dyn_peer[390] 	lookupHopsSig:mean 	44.259259259259
scalar Network.dyn_peer[391] 	lookupTimeSig:mean 	4.2833333333333
scalar Network.dyn_peer[391] 	lookupStabilitySig:mean 	0.96824621652356
scalar Network.dyn_peer[391] 	lookupHopsSig:mean 	41.888888888889
scalar Network.dyn_peer[392] 	lookupTimeSig:mean 	3.14
scalar Network.dyn_peer[392] 	lookupStabilitySig:mean 	0.9596500803406
scalar Network.dyn_peer[392] 	lookupHopsSig:mean 	30.466666666667
scalar Network.dyn_peer[393] 	lookupTimeSig:mean 	4.348
scalar Network.dyn_peer[393] 	lookupStabilitySig:mean 	0.97445941695478
scalar Network.dyn_peer[393] 	lookupHopsSig:mean 	42.52
scalar Network.dyn_peer[394] 	lookupTimeSig:mean 	3.5227272727273
scalar Network.dyn_peer[394] 	lookupStabilitySig:mean 	0.97067743099549
scalar Network.dyn_peer[394] 	lookupHopsSig:mean 	34.272727272727
scalar Network.dyn_peer[395] 	lookupTimeSig:mean 	4.9466666666667
scalar Network.dyn_peer[395] 	lookupStabilitySig:mean 	0.9660832494963
scalar Network.dyn_peer[395] 	lookupHopsSig:mean 	48.533333333333
scalar Network.dyn_peer[396] 	lookupTimeSig:mean 	4.28
scalar Network.dyn_peer[396] 	lookupStabilitySig:mean 	0.97574632273366
scalar Network.dyn_peer[396] 	lookupHopsSig:mean 	41.833333333333
scalar Network.dyn_peer[397] 	lookupTimeSig:mean 	2.87
scalar Network.dyn_peer[397] 	lookupStabilitySig:mean 	0.95934380483814
scalar Network.dyn_peer[397] 	lookupHopsSig:mean 	27.8
scalar Network.dyn_peer[398] 	lookupTimeSig:mean 	3.9739130434783
scalar Network.dyn_peer[398] 	lookupStabilitySig:mean 	0.97281747995167
scalar Network.dyn_peer[398] 	lookupHopsSig:mean 	38.782608695652
scalar Network.dyn_peer[399] 	lookupTimeSig:mean 	4.2586206896552
scalar Network.dyn_peer[399] 	lookupStabilitySig:mean 	0.97504401072089
scalar Network.dyn_peer[399] 	lookupHopsSig:mean 	41.620689655172
scalar Network.dyn_peer[400] 	lookupTimeSig:mean 	2.8807692307692
scalar Network.dyn_peer[400] 	lookupStabilitySig:mean 	0.97565612904369
scalar Network.dyn_peer[400] 	lookupHopsSig:mean 	27.846153846154
scalar Network.dyn_peer[401] 	lookupTimeSig:mean 	3.0333333333333
scalar Network.dyn_peer[401] 	lookupStabilitySig:mean 	0.98098977648381
scalar Network.dyn_peer[401] 	lookupHopsSig:mean 	29.375
scalar Network.dyn_peer[402] 	lookupTimeSig:mean 	1.5090909090909
scalar Network.dyn_peer[402] 	lookupStabilitySig:mean 	0.95808038361032
scalar Network.dyn_peer[402] 	lookupHopsSig:mean 	14.181818181818
scalar Network.dyn_peer[403] 	lookupTimeSig:mean 	3.8882352941176
scalar Network.dyn_peer[403] 	lookupStabilitySig:mean 	0.9634695803637
scalar Network.dyn_peer[403] 	lookupHopsSig:mean 	37.941176470588
scalar Network.dyn_peer[404] 	lookupTimeSig:mean 	3.0129032258065
[...]
scalar Network.dyn_peer[9898] 	lookupHopsSig:mean 	67.6
scalar Network.dyn_peer[9899] 	lookupTimeSig:mean 	4.0666666666667
scalar Network.dyn_peer[9899] 	lookupStabilitySig:mean 	0.99496956697678
scalar Network.dyn_peer[9899] 	lookupHopsSig:mean 	39.777777777778
scalar Network.dyn_peer[9900] 	lookupTimeSig:mean 	2.95
scalar Network.dyn_peer[9900] 	lookupStabilitySig:mean 	0.99614296552318
scalar Network.dyn_peer[9900] 	lookupHopsSig:mean 	28.625
scalar Network.dyn_peer[9901] 	lookupTimeSig:mean 	5.8
scalar Network.dyn_peer[9901] 	lookupStabilitySig:mean 	0.9924620167003
scalar Network.dyn_peer[9901] 	lookupHopsSig:mean 	57.25
scalar Network.dyn_peer[9902] 	lookupTimeSig:mean 	5.42
scalar Network.dyn_peer[9902] 	lookupStabilitySig:mean 	0.99305894485442
scalar Network.dyn_peer[9902] 	lookupHopsSig:mean 	53.4
scalar Network.dyn_peer[9903] 	lookupTimeSig:mean 	4.4333333333333
scalar Network.dyn_peer[9903] 	lookupStabilitySig:mean 	0.99478911517266
scalar Network.dyn_peer[9903] 	lookupHopsSig:mean 	43.416666666667
scalar Network.dyn_peer[9904] 	lookupTimeSig:mean 	5.275
scalar Network.dyn_peer[9904] 	lookupStabilitySig:mean 	0.99361673540261
scalar Network.dyn_peer[9904] 	lookupHopsSig:mean 	51.875
scalar Network.dyn_peer[9905] 	lookupTimeSig:mean 	4.38
scalar Network.dyn_peer[9905] 	lookupStabilitySig:mean 	0.99417153350078
scalar Network.dyn_peer[9905] 	lookupHopsSig:mean 	43
scalar Network.dyn_peer[9906] 	lookupTimeSig:mean 	7.525
scalar Network.dyn_peer[9906] 	lookupStabilitySig:mean 	0.99040466733277
scalar Network.dyn_peer[9906] 	lookupHopsSig:mean 	74.5
scalar Network.dyn_peer[9907] 	lookupTimeSig:mean 	4.75
scalar Network.dyn_peer[9907] 	lookupStabilitySig:mean 	0.99435915524373
scalar Network.dyn_peer[9907] 	lookupHopsSig:mean 	46.6
scalar Network.dyn_peer[9908] 	lookupTimeSig:mean 	4.1375
scalar Network.dyn_peer[9908] 	lookupStabilitySig:mean 	0.99478383176029
scalar Network.dyn_peer[9908] 	lookupHopsSig:mean 	40.5
scalar Network.dyn_peer[9909] 	lookupTimeSig:mean 	5.675
scalar Network.dyn_peer[9909] 	lookupStabilitySig:mean 	0.99318744370248
scalar Network.dyn_peer[9909] 	lookupHopsSig:mean 	55.875
scalar Network.dyn_peer[9910] 	lookupTimeSig:mean 	4.24
scalar Network.dyn_peer[9910] 	lookupStabilitySig:mean 	0.99439199758926
scalar Network.dyn_peer[9910] 	lookupHopsSig:mean 	41.6
scalar Network.dyn_peer[9911] 	lookupTimeSig:mean 	5.5571428571429
scalar Network.dyn_peer[9911] 	lookupStabilitySig:mean 	0.99315546180255
scalar Network.dyn_peer[9911] 	lookupHopsSig:mean 	54.714285714286
scalar Network.dyn_peer[9912] 	lookupTimeSig:mean 	5.6666666666667
scalar Network.dyn_peer[9912] 	lookupStabilitySig:mean 	0.99290368032719
scalar Network.dyn_peer[9912] 	lookupHopsSig:mean 	55.833333333333
scalar Network.dyn_peer[9913] 	lookupTimeSig:mean 	6.425
scalar Network.dyn_peer[9913] 	lookupStabilitySig:mean 	0.99240451029618
scalar Network.dyn_peer[9913] 	lookupHopsSig:mean 	63.375
scalar Network.dyn_peer[9914] 	lookupTimeSig:mean 	5.1857142857143
scalar Network.dyn_peer[9914] 	lookupStabilitySig:mean 	0.99357880106462
scalar Network.dyn_peer[9914] 	lookupHopsSig:mean 	51
scalar Network.dyn_peer[9915] 	lookupTimeSig:mean 	5.25
scalar Network.dyn_peer[9915] 	lookupStabilitySig:mean 	0.99299015547149
scalar Network.dyn_peer[9915] 	lookupHopsSig:mean 	51.75
scalar Network.dyn_peer[9916] 	lookupTimeSig:mean 	6.2333333333333
scalar Network.dyn_peer[9916] 	lookupStabilitySig:mean 	0.99168879181767
scalar Network.dyn_peer[9916] 	lookupHopsSig:mean 	61.666666666667
scalar Network.dyn_peer[9917] 	lookupTimeSig:mean 	3.33
scalar Network.dyn_peer[9917] 	lookupStabilitySig:mean 	0.99582477200311
scalar Network.dyn_peer[9917] 	lookupHopsSig:mean 	32.4
scalar Network.dyn_peer[9918] 	lookupTimeSig:mean 	5.8625
scalar Network.dyn_peer[9918] 	lookupStabilitySig:mean 	0.99298931709927
scalar Network.dyn_peer[9918] 	lookupHopsSig:mean 	57.75
scalar Network.dyn_peer[9919] 	lookupTimeSig:mean 	4.7857142857143
scalar Network.dyn_peer[9919] 	lookupStabilitySig:mean 	0.99402689012433
scalar Network.dyn_peer[9919] 	lookupHopsSig:mean 	47
scalar Network.dyn_peer[9920] 	lookupTimeSig:mean 	4.4666666666667
scalar Network.dyn_peer[9920] 	lookupStabilitySig:mean 	0.99421983472227
scalar Network.dyn_peer[9920] 	lookupHopsSig:mean 	43.833333333333
scalar Network.dyn_peer[9921] 	lookupTimeSig:mean 	6.3692307692308
scalar Network.dyn_peer[9921] 	lookupStabilitySig:mean 	0.99295646095505
scalar Network.dyn_peer[9921] 	lookupHopsSig:mean 	62.769230769231
scalar Network.dyn_peer[9922] 	lookupTimeSig:mean 	4.9636363636364
scalar Network.dyn_peer[9922] 	lookupStabilitySig:mean 	0.99433794646228
scalar Network.dyn_peer[9922] 	lookupHopsSig:mean 	48.727272727273
scalar Network.dyn_peer[9923] 	lookupTimeSig:mean 	4.3625
scalar Network.dyn_peer[9923] 	lookupStabilitySig:mean 	0.9945841220615
scalar Network.dyn_peer[9923] 	lookupHopsSig:mean 	42.75
scalar Network.dyn_peer[9924] 	lookupTimeSig:mean 	7.5
scalar Network.dyn_peer[9924] 	lookupStabilitySig:mean 	0.98974782926962
scalar Network.dyn_peer[9924] 	lookupHopsSig:mean 	74.5
scalar Network.dyn_peer[9925] 	lookupTimeSig:mean 	6.58
scalar Network.dyn_peer[9925] 	lookupStabilitySig:mean 	0.99252601542976
scalar Network.dyn_peer[9925] 	lookupHopsSig:mean 	64.9
scalar Network.dyn_peer[9926] 	lookupTimeSig:mean 	6.1083333333333
scalar Network.dyn_peer[9926] 	lookupStabilitySig:mean 	0.9931206976374
scalar Network.dyn_peer[9926] 	lookupHopsSig:mean 	60.166666666667
scalar Network.dyn_peer[9927] 	lookupTimeSig:mean 	4.2428571428571
scalar Network.dyn_peer[9927] 	lookupStabilitySig:mean 	0.99458310084551
scalar Network.dyn_peer[9927] 	lookupHopsSig:mean 	41.571428571429
scalar Network.dyn_peer[9928] 	lookupTimeSig:mean 	4.6461538461538
scalar Network.dyn_peer[9928] 	lookupStabilitySig:mean 	0.9946524709678
scalar Network.dyn_peer[9928] 	lookupHopsSig:mean 	45.538461538462
scalar Network.dyn_peer[9929] 	lookupTimeSig:mean 	4.8571428571429
scalar Network.dyn_peer[9929] 	lookupStabilitySig:mean 	0.99391418312942
scalar Network.dyn_peer[9929] 	lookupHopsSig:mean 	47.714285714286
scalar Network.dyn_peer[9930] 	lookupTimeSig:mean 	3.6625
scalar Network.dyn_peer[9930] 	lookupStabilitySig:mean 	0.99538844308699
scalar Network.dyn_peer[9930] 	lookupHopsSig:mean 	35.75
scalar Network.dyn_peer[9931] 	lookupTimeSig:mean 	4.0571428571429
scalar Network.dyn_peer[9931] 	lookupStabilitySig:mean 	0.9947826751907
scalar Network.dyn_peer[9931] 	lookupHopsSig:mean 	39.714285714286
scalar Network.dyn_peer[9932] 	lookupTimeSig:mean 	7.375
scalar Network.dyn_peer[9932] 	lookupStabilitySig:mean 	0.99189899772561
scalar Network.dyn_peer[9932] 	lookupHopsSig:mean 	72.833333333333
scalar Network.dyn_peer[9933] 	lookupTimeSig:mean 	4.7428571428571
scalar Network.dyn_peer[9933] 	lookupStabilitySig:mean 	0.99405330378795
scalar Network.dyn_peer[9933] 	lookupHopsSig:mean 	46.571428571429
scalar Network.dyn_peer[9934] 	lookupTimeSig:mean 	5.8833333333333
scalar Network.dyn_peer[9934] 	lookupStabilitySig:mean 	0.99277847217551
scalar Network.dyn_peer[9934] 	lookupHopsSig:mean 	58
scalar Network.dyn_peer[9935] 	lookupTimeSig:mean 	6.3142857142857
scalar Network.dyn_peer[9935] 	lookupStabilitySig:mean 	0.99249290644989
scalar Network.dyn_peer[9935] 	lookupHopsSig:mean 	62.285714285714
scalar Network.dyn_peer[9936] 	lookupTimeSig:mean 	3.5285714285714
scalar Network.dyn_peer[9936] 	lookupStabilitySig:mean 	0.99541792503026
scalar Network.dyn_peer[9936] 	lookupHopsSig:mean 	34.428571428571
scalar Network.dyn_peer[9937] 	lookupTimeSig:mean 	4.1142857142857
scalar Network.dyn_peer[9937] 	lookupStabilitySig:mean 	0.99476098019763
scalar Network.dyn_peer[9937] 	lookupHopsSig:mean 	40.285714285714
scalar Network.dyn_peer[9938] 	lookupTimeSig:mean 	6.9571428571429
scalar Network.dyn_peer[9938] 	lookupStabilitySig:mean 	0.99180445211407
scalar Network.dyn_peer[9938] 	lookupHopsSig:mean 	68.714285714286
scalar Network.dyn_peer[9939] 	lookupTimeSig:mean 	4.0285714285714
scalar Network.dyn_peer[9939] 	lookupStabilitySig:mean 	0.99486687231443
scalar Network.dyn_peer[9939] 	lookupHopsSig:mean 	39.428571428571
scalar Network.dyn_peer[9940] 	lookupTimeSig:mean 	7.5
scalar Network.dyn_peer[9940] 	lookupStabilitySig:mean 	0.99110261055951
scalar Network.dyn_peer[9940] 	lookupHopsSig:mean 	74.166666666667
scalar Network.dyn_peer[9941] 	lookupTimeSig:mean 	4.7666666666667
scalar Network.dyn_peer[9941] 	lookupStabilitySig:mean 	0.99449861518466
scalar Network.dyn_peer[9941] 	lookupHopsSig:mean 	46.75
scalar Network.dyn_peer[9942] 	lookupTimeSig:mean 	6.65
scalar Network.dyn_peer[9942] 	lookupStabilitySig:mean 	0.99187955462063
scalar Network.dyn_peer[9942] 	lookupHopsSig:mean 	65.666666666667
scalar Network.dyn_peer[9943] 	lookupTimeSig:mean 	4.7333333333333
scalar Network.dyn_peer[9943] 	lookupStabilitySig:mean 	0.99392277514562
scalar Network.dyn_peer[9943] 	lookupHopsSig:mean 	46.5
scalar Network.dyn_peer[9944] 	lookupTimeSig:mean 	6.2
scalar Network.dyn_peer[9944] 	lookupStabilitySig:mean 	0.99278050565368
scalar Network.dyn_peer[9944] 	lookupHopsSig:mean 	61.111111111111
scalar Network.dyn_peer[9945] 	lookupTimeSig:mean 	6.7538461538462
scalar Network.dyn_peer[9945] 	lookupStabilitySig:mean 	0.99260902066285
scalar Network.dyn_peer[9945] 	lookupHopsSig:mean 	66.615384615385
scalar Network.dyn_peer[9946] 	lookupTimeSig:mean 	5.1857142857143
scalar Network.dyn_peer[9946] 	lookupStabilitySig:mean 	0.99358213899125
scalar Network.dyn_peer[9946] 	lookupHopsSig:mean 	51
scalar Network.dyn_peer[9947] 	lookupTimeSig:mean 	6.5142857142857
scalar Network.dyn_peer[9947] 	lookupStabilitySig:mean 	0.99225020535024
scalar Network.dyn_peer[9947] 	lookupHopsSig:mean 	64.285714285714
scalar Network.dyn_peer[9948] 	lookupTimeSig:mean 	5.56
scalar Network.dyn_peer[9948] 	lookupStabilitySig:mean 	0.99286465030164
scalar Network.dyn_peer[9948] 	lookupHopsSig:mean 	54.8
scalar Network.dyn_peer[9949] 	lookupTimeSig:mean 	4.85
scalar Network.dyn_peer[9949] 	lookupStabilitySig:mean 	0.99447386843773
scalar Network.dyn_peer[9949] 	lookupHopsSig:mean 	47.583333333333
scalar Network.dyn_peer[9950] 	lookupTimeSig:mean 	4.5857142857143
scalar Network.dyn_peer[9950] 	lookupStabilitySig:mean 	0.99428750531349
scalar Network.dyn_peer[9950] 	lookupHopsSig:mean 	45
scalar Network.dyn_peer[9951] 	lookupTimeSig:mean 	4.36
scalar Network.dyn_peer[9951] 	lookupStabilitySig:mean 	0.99477798906155
scalar Network.dyn_peer[9951] 	lookupHopsSig:mean 	42.7
scalar Network.dyn_peer[9952] 	lookupTimeSig:mean 	6.0222222222222
scalar Network.dyn_peer[9952] 	lookupStabilitySig:mean 	0.99305788761315
scalar Network.dyn_peer[9952] 	lookupHopsSig:mean 	59.333333333333
scalar Network.dyn_peer[9953] 	lookupTimeSig:mean 	3.925
scalar Network.dyn_peer[9953] 	lookupStabilitySig:mean 	0.99465964309638
scalar Network.dyn_peer[9953] 	lookupHopsSig:mean 	38.5
scalar Network.dyn_peer[9954] 	lookupTimeSig:mean 	5.6
scalar Network.dyn_peer[9954] 	lookupStabilitySig:mean 	0.9926771055907
scalar Network.dyn_peer[9954] 	lookupHopsSig:mean 	55.25
scalar Network.dyn_peer[9955] 	lookupTimeSig:mean 	7.52
scalar Network.dyn_peer[9955] 	lookupStabilitySig:mean 	0.99079595585354
scalar Network.dyn_peer[9955] 	lookupHopsSig:mean 	74.4
scalar Network.dyn_peer[9956] 	lookupTimeSig:mean 	5.7714285714286
scalar Network.dyn_peer[9956] 	lookupStabilitySig:mean 	0.99299452902882
scalar Network.dyn_peer[9956] 	lookupHopsSig:mean 	56.857142857143
scalar Network.dyn_peer[9957] 	lookupTimeSig:mean 	4.2333333333333
scalar Network.dyn_peer[9957] 	lookupStabilitySig:mean 	0.99450010969304
scalar Network.dyn_peer[9957] 	lookupHopsSig:mean 	41.5
scalar Network.dyn_peer[9958] 	lookupTimeSig:mean 	3.6666666666667
scalar Network.dyn_peer[9958] 	lookupStabilitySig:mean 	0.99485814617947
scalar Network.dyn_peer[9958] 	lookupHopsSig:mean 	36
scalar Network.dyn_peer[9959] 	lookupTimeSig:mean 	4.8857142857143
scalar Network.dyn_peer[9959] 	lookupStabilitySig:mean 	0.99390155655731
scalar Network.dyn_peer[9959] 	lookupHopsSig:mean 	48
scalar Network.dyn_peer[9960] 	lookupTimeSig:mean 	5.7857142857143
scalar Network.dyn_peer[9960] 	lookupStabilitySig:mean 	0.99297660342251
scalar Network.dyn_peer[9960] 	lookupHopsSig:mean 	57
scalar Network.dyn_peer[9961] 	lookupTimeSig:mean 	8.625
scalar Network.dyn_peer[9961] 	lookupStabilitySig:mean 	0.98934683843981
scalar Network.dyn_peer[9961] 	lookupHopsSig:mean 	85.5
scalar Network.dyn_peer[9962] 	lookupTimeSig:mean 	4.1285714285714
scalar Network.dyn_peer[9962] 	lookupStabilitySig:mean 	0.99470924522861
scalar Network.dyn_peer[9962] 	lookupHopsSig:mean 	40.428571428571
scalar Network.dyn_peer[9963] 	lookupTimeSig:mean 	6.6
scalar Network.dyn_peer[9963] 	lookupStabilitySig:mean 	0.99251265785424
scalar Network.dyn_peer[9963] 	lookupHopsSig:mean 	65.1
scalar Network.dyn_peer[9964] 	lookupTimeSig:mean 	6.1714285714286
scalar Network.dyn_peer[9964] 	lookupStabilitySig:mean 	0.99257191288052
scalar Network.dyn_peer[9964] 	lookupHopsSig:mean 	60.857142857143
scalar Network.dyn_peer[9965] 	lookupTimeSig:mean 	5.2333333333333
scalar Network.dyn_peer[9965] 	lookupStabilitySig:mean 	0.99378431875569
scalar Network.dyn_peer[9965] 	lookupHopsSig:mean 	51.444444444444
scalar Network.dyn_peer[9966] 	lookupTimeSig:mean 	4.4857142857143
scalar Network.dyn_peer[9966] 	lookupStabilitySig:mean 	0.99433418413225
scalar Network.dyn_peer[9966] 	lookupHopsSig:mean 	44
scalar Network.dyn_peer[9967] 	lookupTimeSig:mean 	5.75
scalar Network.dyn_peer[9967] 	lookupStabilitySig:mean 	0.99256838939618
scalar Network.dyn_peer[9967] 	lookupHopsSig:mean 	56.75
scalar Network.dyn_peer[9968] 	lookupTimeSig:mean 	5.8714285714286
scalar Network.dyn_peer[9968] 	lookupStabilitySig:mean 	0.99294799160478
scalar Network.dyn_peer[9968] 	lookupHopsSig:mean 	57.857142857143
scalar Network.dyn_peer[9969] 	lookupTimeSig:mean 	5.8222222222222
scalar Network.dyn_peer[9969] 	lookupStabilitySig:mean 	0.99318932000703
scalar Network.dyn_peer[9969] 	lookupHopsSig:mean 	57.333333333333
scalar Network.dyn_peer[9970] 	lookupTimeSig:mean 	4.4615384615385
scalar Network.dyn_peer[9970] 	lookupStabilitySig:mean 	0.9948542897697
scalar Network.dyn_peer[9970] 	lookupHopsSig:mean 	43.692307692308
scalar Network.dyn_peer[9971] 	lookupTimeSig:mean 	3.05
scalar Network.dyn_peer[9971] 	lookupStabilitySig:mean 	0.99555730645079
scalar Network.dyn_peer[9971] 	lookupHopsSig:mean 	30
scalar Network.dyn_peer[9972] 	lookupTimeSig:mean 	2.7066666666667
scalar Network.dyn_peer[9972] 	lookupStabilitySig:mean 	0.99673735415563
scalar Network.dyn_peer[9972] 	lookupHopsSig:mean 	26.133333333333
scalar Network.dyn_peer[9973] 	lookupTimeSig:mean 	4.6
scalar Network.dyn_peer[9973] 	lookupStabilitySig:mean 	0.99471496916018
scalar Network.dyn_peer[9973] 	lookupHopsSig:mean 	45.076923076923
scalar Network.dyn_peer[9974] 	lookupTimeSig:mean 	6.21
scalar Network.dyn_peer[9974] 	lookupStabilitySig:mean 	0.99293275193777
scalar Network.dyn_peer[9974] 	lookupHopsSig:mean 	61.2
scalar Network.dyn_peer[9975] 	lookupTimeSig:mean 	5.0583333333333
scalar Network.dyn_peer[9975] 	lookupStabilitySig:mean 	0.9942008129486
scalar Network.dyn_peer[9975] 	lookupHopsSig:mean 	49.666666666667
scalar Network.dyn_peer[9976] 	lookupTimeSig:mean 	3.65
scalar Network.dyn_peer[9976] 	lookupStabilitySig:mean 	0.99501140564826
scalar Network.dyn_peer[9976] 	lookupHopsSig:mean 	35.75
scalar Network.dyn_peer[9977] 	lookupTimeSig:mean 	7.1714285714286
scalar Network.dyn_peer[9977] 	lookupStabilitySig:mean 	0.99155985736953
scalar Network.dyn_peer[9977] 	lookupHopsSig:mean 	70.857142857143
scalar Network.dyn_peer[9978] 	lookupTimeSig:mean 	7.95
scalar Network.dyn_peer[9978] 	lookupStabilitySig:mean 	0.98932453943416
scalar Network.dyn_peer[9978] 	lookupHopsSig:mean 	79
scalar Network.dyn_peer[9979] 	lookupTimeSig:mean 	5.0882352941176
scalar Network.dyn_peer[9979] 	lookupStabilitySig:mean 	0.99441554370638
scalar Network.dyn_peer[9979] 	lookupHopsSig:mean 	49.941176470588
scalar Network.dyn_peer[9980] 	lookupTimeSig:mean 	4.5
scalar Network.dyn_peer[9980] 	lookupStabilitySig:mean 	0.99408102189191
scalar Network.dyn_peer[9980] 	lookupHopsSig:mean 	44.2
scalar Network.dyn_peer[9981] 	lookupTimeSig:mean 	5.9428571428571
scalar Network.dyn_peer[9981] 	lookupStabilitySig:mean 	0.99290809454396
scalar Network.dyn_peer[9981] 	lookupHopsSig:mean 	58.571428571429
scalar Network.dyn_peer[9982] 	lookupTimeSig:mean 	6.1363636363636
scalar Network.dyn_peer[9982] 	lookupStabilitySig:mean 	0.99307425764643
scalar Network.dyn_peer[9982] 	lookupHopsSig:mean 	60.454545454545
scalar Network.dyn_peer[9983] 	lookupTimeSig:mean 	8
scalar Network.dyn_peer[9983] 	lookupStabilitySig:mean 	0.99000587430783
scalar Network.dyn_peer[9983] 	lookupHopsSig:mean 	79.25
scalar Network.dyn_peer[9984] 	lookupTimeSig:mean 	5.3
scalar Network.dyn_peer[9984] 	lookupStabilitySig:mean 	0.99389243629676
scalar Network.dyn_peer[9984] 	lookupHopsSig:mean 	52.090909090909
scalar Network.dyn_peer[9985] 	lookupTimeSig:mean 	4.7916666666667
scalar Network.dyn_peer[9985] 	lookupStabilitySig:mean 	0.99447799652504
scalar Network.dyn_peer[9985] 	lookupHopsSig:mean 	47
scalar Network.dyn_peer[9986] 	lookupTimeSig:mean 	5.9285714285714
scalar Network.dyn_peer[9986] 	lookupStabilitySig:mean 	0.99282658073519
scalar Network.dyn_peer[9986] 	lookupHopsSig:mean 	58.428571428571
scalar Network.dyn_peer[9987] 	lookupTimeSig:mean 	5.1833333333333
scalar Network.dyn_peer[9987] 	lookupStabilitySig:mean 	0.99352563832266
scalar Network.dyn_peer[9987] 	lookupHopsSig:mean 	51
scalar Network.dyn_peer[9988] 	lookupTimeSig:mean 	6.0333333333333
scalar Network.dyn_peer[9988] 	lookupStabilitySig:mean 	0.99300232942268
scalar Network.dyn_peer[9988] 	lookupHopsSig:mean 	59.444444444444
scalar Network.dyn_peer[9989] 	lookupTimeSig:mean 	4.5
scalar Network.dyn_peer[9989] 	lookupStabilitySig:mean 	0.99456928442184
scalar Network.dyn_peer[9989] 	lookupHopsSig:mean 	44.111111111111
scalar Network.dyn_peer[9990] 	lookupTimeSig:mean 	5.875
scalar Network.dyn_peer[9990] 	lookupStabilitySig:mean 	0.9930190507439
scalar Network.dyn_peer[9990] 	lookupHopsSig:mean 	57.875
scalar Network.dyn_peer[9991] 	lookupTimeSig:mean 	4.5714285714286
scalar Network.dyn_peer[9991] 	lookupStabilitySig:mean 	0.99430920176175
scalar Network.dyn_peer[9991] 	lookupHopsSig:mean 	44.857142857143
scalar Network.dyn_peer[9992] 	lookupTimeSig:mean 	6.2888888888889
scalar Network.dyn_peer[9992] 	lookupStabilitySig:mean 	0.99273891358947
scalar Network.dyn_peer[9992] 	lookupHopsSig:mean 	62
scalar Network.dyn_peer[9993] 	lookupTimeSig:mean 	5.21
scalar Network.dyn_peer[9993] 	lookupStabilitySig:mean 	0.9938860862283
scalar Network.dyn_peer[9993] 	lookupHopsSig:mean 	51.2
scalar Network.dyn_peer[9994] 	lookupTimeSig:mean 	5.2333333333333
scalar Network.dyn_peer[9994] 	lookupStabilitySig:mean 	0.99287061796834
scalar Network.dyn_peer[9994] 	lookupHopsSig:mean 	51.666666666667
scalar Network.dyn_peer[9995] 	lookupTimeSig:mean 	3.8571428571429
scalar Network.dyn_peer[9995] 	lookupStabilitySig:mean 	0.99504534514355
scalar Network.dyn_peer[9995] 	lookupHopsSig:mean 	37.714285714286
scalar Network.dyn_peer[9996] 	lookupTimeSig:mean 	5.9
scalar Network.dyn_peer[9996] 	lookupStabilitySig:mean 	0.9932132494403
scalar Network.dyn_peer[9996] 	lookupHopsSig:mean 	58.1
scalar Network.dyn_peer[9997] 	lookupTimeSig:mean 	6.4818181818182
scalar Network.dyn_peer[9997] 	lookupStabilitySig:mean 	0.99274990580637
scalar Network.dyn_peer[9997] 	lookupHopsSig:mean 	63.909090909091
scalar Network.dyn_peer[9998] 	lookupTimeSig:mean 	6.0733333333333
scalar Network.dyn_peer[9998] 	lookupStabilitySig:mean 	0.99334544353187
scalar Network.dyn_peer[9998] 	lookupHopsSig:mean 	59.8
scalar Network.dyn_peer[9999] 	lookupTimeSig:mean 	3.8125
scalar Network.dyn_peer[9999] 	lookupStabilitySig:mean 	0.99518503167201
scalar Network.dyn_peer[9999] 	lookupHopsSig:mean 	37.25
scalar Network.churner 	inGoingSizeSig:mean 	2177.095290471
