version 2
run Stability2-97-20130528-01:54:12-24168
attr configname Stability2
attr datetime 20130528-01:54:12
attr experiment Stability2
attr inifile omnetpp.ini
attr iterationvars $0=500
attr iterationvars2 "$0=500, $repetition=7"
attr measurement $0=500
attr network Network
attr processid 24168
attr repetition 7
attr replication #7
attr resultdir results
attr runnumber 97
attr seedset 97

scalar Network.dyn_peer[0] 	lookupTimeSig:mean 	2.475
scalar Network.dyn_peer[0] 	lookupStabilitySig:mean 	0.84965398599161
scalar Network.dyn_peer[0] 	lookupHopsSig:mean 	23.8125
scalar Network.dyn_peer[1] 	lookupTimeSig:mean 	2.6842105263158
scalar Network.dyn_peer[1] 	lookupStabilitySig:mean 	0.86649800587053
scalar Network.dyn_peer[1] 	lookupHopsSig:mean 	25.894736842105
scalar Network.dyn_peer[2] 	lookupTimeSig:mean 	1.6230769230769
scalar Network.dyn_peer[2] 	lookupStabilitySig:mean 	0.82350110626206
scalar Network.dyn_peer[2] 	lookupHopsSig:mean 	15.307692307692
scalar Network.dyn_peer[3] 	lookupTimeSig:mean 	2.90625
scalar Network.dyn_peer[3] 	lookupStabilitySig:mean 	0.86278422980104
scalar Network.dyn_peer[3] 	lookupHopsSig:mean 	28.125
scalar Network.dyn_peer[4] 	lookupTimeSig:mean 	1.8611111111111
scalar Network.dyn_peer[4] 	lookupStabilitySig:mean 	0.86859902315256
scalar Network.dyn_peer[4] 	lookupHopsSig:mean 	17.666666666667
scalar Network.dyn_peer[5] 	lookupTimeSig:mean 	2.35
scalar Network.dyn_peer[5] 	lookupStabilitySig:mean 	0.8547190479876
scalar Network.dyn_peer[5] 	lookupHopsSig:mean 	22.5625
scalar Network.dyn_peer[6] 	lookupTimeSig:mean 	2.7357142857143
scalar Network.dyn_peer[6] 	lookupStabilitySig:mean 	0.8177673744836
scalar Network.dyn_peer[6] 	lookupHopsSig:mean 	26.428571428571
scalar Network.dyn_peer[7] 	lookupTimeSig:mean 	2.0733333333333
scalar Network.dyn_peer[7] 	lookupStabilitySig:mean 	0.83788328245282
scalar Network.dyn_peer[7] 	lookupHopsSig:mean 	19.8
scalar Network.dyn_peer[8] 	lookupTimeSig:mean 	2.41875
scalar Network.dyn_peer[8] 	lookupStabilitySig:mean 	0.859760712774
scalar Network.dyn_peer[8] 	lookupHopsSig:mean 	23.25
scalar Network.dyn_peer[9] 	lookupTimeSig:mean 	2.7388888888889
scalar Network.dyn_peer[9] 	lookupStabilitySig:mean 	0.86664301684747
scalar Network.dyn_peer[9] 	lookupHopsSig:mean 	26.444444444444
scalar Network.dyn_peer[10] 	lookupTimeSig:mean 	2.3421052631579
scalar Network.dyn_peer[10] 	lookupStabilitySig:mean 	0.86244059064867
scalar Network.dyn_peer[10] 	lookupHopsSig:mean 	22.473684210526
scalar Network.dyn_peer[11] 	lookupTimeSig:mean 	2.4411764705882
scalar Network.dyn_peer[11] 	lookupStabilitySig:mean 	0.85429765445673
scalar Network.dyn_peer[11] 	lookupHopsSig:mean 	23.470588235294
scalar Network.dyn_peer[12] 	lookupTimeSig:mean 	2.1
scalar Network.dyn_peer[12] 	lookupStabilitySig:mean 	0.88896664971
scalar Network.dyn_peer[12] 	lookupHopsSig:mean 	20.04347826087
scalar Network.dyn_peer[13] 	lookupTimeSig:mean 	2.0238095238095
scalar Network.dyn_peer[13] 	lookupStabilitySig:mean 	0.89240071120938
scalar Network.dyn_peer[13] 	lookupHopsSig:mean 	19.285714285714
scalar Network.dyn_peer[14] 	lookupTimeSig:mean 	2.6136363636364
scalar Network.dyn_peer[14] 	lookupStabilitySig:mean 	0.89499500312377
scalar Network.dyn_peer[14] 	lookupHopsSig:mean 	25.181818181818
scalar Network.dyn_peer[15] 	lookupTimeSig:mean 	3.0714285714286
scalar Network.dyn_peer[15] 	lookupStabilitySig:mean 	0.83354583316083
scalar Network.dyn_peer[15] 	lookupHopsSig:mean 	29.785714285714
scalar Network.dyn_peer[16] 	lookupTimeSig:mean 	3.4357142857143
scalar Network.dyn_peer[16] 	lookupStabilitySig:mean 	0.84225483331829
scalar Network.dyn_peer[16] 	lookupHopsSig:mean 	33.428571428571
scalar Network.dyn_peer[17] 	lookupTimeSig:mean 	1.72
scalar Network.dyn_peer[17] 	lookupStabilitySig:mean 	0.87231273781508
scalar Network.dyn_peer[17] 	lookupHopsSig:mean 	16.266666666667
scalar Network.dyn_peer[18] 	lookupTimeSig:mean 	3.205
scalar Network.dyn_peer[18] 	lookupStabilitySig:mean 	0.88933782023378
scalar Network.dyn_peer[18] 	lookupHopsSig:mean 	31.1
scalar Network.dyn_peer[19] 	lookupTimeSig:mean 	2.4133333333333
scalar Network.dyn_peer[19] 	lookupStabilitySig:mean 	0.86818656781688
scalar Network.dyn_peer[19] 	lookupHopsSig:mean 	23.2
scalar Network.dyn_peer[20] 	lookupTimeSig:mean 	1.88
scalar Network.dyn_peer[20] 	lookupStabilitySig:mean 	0.86587458960712
scalar Network.dyn_peer[20] 	lookupHopsSig:mean 	17.866666666667
scalar Network.dyn_peer[21] 	lookupTimeSig:mean 	1.8285714285714
scalar Network.dyn_peer[21] 	lookupStabilitySig:mean 	0.83221584622515
scalar Network.dyn_peer[21] 	lookupHopsSig:mean 	17.357142857143
scalar Network.dyn_peer[22] 	lookupTimeSig:mean 	1.7
scalar Network.dyn_peer[22] 	lookupStabilitySig:mean 	0.81054341130786
scalar Network.dyn_peer[22] 	lookupHopsSig:mean 	16.111111111111
scalar Network.dyn_peer[23] 	lookupTimeSig:mean 	1.6380952380952
scalar Network.dyn_peer[23] 	lookupStabilitySig:mean 	0.89457220335801
scalar Network.dyn_peer[23] 	lookupHopsSig:mean 	15.428571428571
scalar Network.dyn_peer[24] 	lookupTimeSig:mean 	1.875
scalar Network.dyn_peer[24] 	lookupStabilitySig:mean 	0.86662265926134
scalar Network.dyn_peer[24] 	lookupHopsSig:mean 	17.8125
scalar Network.dyn_peer[25] 	lookupTimeSig:mean 	2.9466666666667
scalar Network.dyn_peer[25] 	lookupStabilitySig:mean 	0.86494987259308
scalar Network.dyn_peer[25] 	lookupHopsSig:mean 	28.533333333333
scalar Network.dyn_peer[26] 	lookupTimeSig:mean 	2.0266666666667
scalar Network.dyn_peer[26] 	lookupStabilitySig:mean 	0.86804588418454
scalar Network.dyn_peer[26] 	lookupHopsSig:mean 	19.333333333333
scalar Network.dyn_peer[27] 	lookupTimeSig:mean 	2.6190476190476
scalar Network.dyn_peer[27] 	lookupStabilitySig:mean 	0.90021299581886
scalar Network.dyn_peer[27] 	lookupHopsSig:mean 	25.238095238095
scalar Network.dyn_peer[28] 	lookupTimeSig:mean 	3.3
scalar Network.dyn_peer[28] 	lookupStabilitySig:mean 	0.871041239443
scalar Network.dyn_peer[28] 	lookupHopsSig:mean 	32.0625
scalar Network.dyn_peer[29] 	lookupTimeSig:mean 	2.2818181818182
scalar Network.dyn_peer[29] 	lookupStabilitySig:mean 	0.83338969852775
scalar Network.dyn_peer[29] 	lookupHopsSig:mean 	21.909090909091
scalar Network.dyn_peer[30] 	lookupTimeSig:mean 	2.8277777777778
scalar Network.dyn_peer[30] 	lookupStabilitySig:mean 	0.85556556705463
scalar Network.dyn_peer[30] 	lookupHopsSig:mean 	27.333333333333
scalar Network.dyn_peer[31] 	lookupTimeSig:mean 	2.5857142857143
scalar Network.dyn_peer[31] 	lookupStabilitySig:mean 	0.86612143068175
scalar Network.dyn_peer[31] 	lookupHopsSig:mean 	24.928571428571
scalar Network.dyn_peer[32] 	lookupTimeSig:mean 	2.75
scalar Network.dyn_peer[32] 	lookupStabilitySig:mean 	0.88233805022901
scalar Network.dyn_peer[32] 	lookupHopsSig:mean 	26.5625
scalar Network.dyn_peer[33] 	lookupTimeSig:mean 	1.7555555555556
scalar Network.dyn_peer[33] 	lookupStabilitySig:mean 	0.78500910931163
scalar Network.dyn_peer[33] 	lookupHopsSig:mean 	16.666666666667
scalar Network.dyn_peer[34] 	lookupTimeSig:mean 	2.35625
scalar Network.dyn_peer[34] 	lookupStabilitySig:mean 	0.88070755638182
scalar Network.dyn_peer[34] 	lookupHopsSig:mean 	22.625
scalar Network.dyn_peer[35] 	lookupTimeSig:mean 	2.2133333333333
scalar Network.dyn_peer[35] 	lookupStabilitySig:mean 	0.86732033596685
scalar Network.dyn_peer[35] 	lookupHopsSig:mean 	21.2
scalar Network.dyn_peer[36] 	lookupTimeSig:mean 	2.7
scalar Network.dyn_peer[36] 	lookupStabilitySig:mean 	0.85257378301273
scalar Network.dyn_peer[36] 	lookupHopsSig:mean 	26.066666666667
scalar Network.dyn_peer[37] 	lookupTimeSig:mean 	2.2333333333333
scalar Network.dyn_peer[37] 	lookupStabilitySig:mean 	0.86928076545397
scalar Network.dyn_peer[37] 	lookupHopsSig:mean 	21.4
scalar Network.dyn_peer[38] 	lookupTimeSig:mean 	2.3
scalar Network.dyn_peer[38] 	lookupStabilitySig:mean 	0.87226802750125
scalar Network.dyn_peer[38] 	lookupHopsSig:mean 	22.071428571429
scalar Network.dyn_peer[39] 	lookupTimeSig:mean 	2.4277777777778
scalar Network.dyn_peer[39] 	lookupStabilitySig:mean 	0.90058218615337
scalar Network.dyn_peer[39] 	lookupHopsSig:mean 	23.333333333333
scalar Network.dyn_peer[40] 	lookupTimeSig:mean 	2.5666666666667
scalar Network.dyn_peer[40] 	lookupStabilitySig:mean 	0.88560584040048
scalar Network.dyn_peer[40] 	lookupHopsSig:mean 	24.75
scalar Network.dyn_peer[41] 	lookupTimeSig:mean 	1.6214285714286
scalar Network.dyn_peer[41] 	lookupStabilitySig:mean 	0.86661711315225
scalar Network.dyn_peer[41] 	lookupHopsSig:mean 	15.285714285714
scalar Network.dyn_peer[42] 	lookupTimeSig:mean 	2.54
scalar Network.dyn_peer[42] 	lookupStabilitySig:mean 	0.88868805188686
scalar Network.dyn_peer[42] 	lookupHopsSig:mean 	24.466666666667
scalar Network.dyn_peer[43] 	lookupTimeSig:mean 	1.8375
scalar Network.dyn_peer[43] 	lookupStabilitySig:mean 	0.93730023994613
scalar Network.dyn_peer[43] 	lookupHopsSig:mean 	17.4375
scalar Network.dyn_peer[44] 	lookupTimeSig:mean 	2.8928571428571
scalar Network.dyn_peer[44] 	lookupStabilitySig:mean 	0.88762633046801
scalar Network.dyn_peer[44] 	lookupHopsSig:mean 	28
scalar Network.dyn_peer[45] 	lookupTimeSig:mean 	2.61875
scalar Network.dyn_peer[45] 	lookupStabilitySig:mean 	0.89566756956629
scalar Network.dyn_peer[45] 	lookupHopsSig:mean 	25.25
scalar Network.dyn_peer[46] 	lookupTimeSig:mean 	2.4157894736842
scalar Network.dyn_peer[46] 	lookupStabilitySig:mean 	0.89466216036511
scalar Network.dyn_peer[46] 	lookupHopsSig:mean 	23.210526315789
scalar Network.dyn_peer[47] 	lookupTimeSig:mean 	1.8818181818182
scalar Network.dyn_peer[47] 	lookupStabilitySig:mean 	0.84206734496084
scalar Network.dyn_peer[47] 	lookupHopsSig:mean 	17.909090909091
scalar Network.dyn_peer[48] 	lookupTimeSig:mean 	2.6708333333333
scalar Network.dyn_peer[48] 	lookupStabilitySig:mean 	0.93445042458431
scalar Network.dyn_peer[48] 	lookupHopsSig:mean 	25.75
scalar Network.dyn_peer[49] 	lookupTimeSig:mean 	1.6583333333333
scalar Network.dyn_peer[49] 	lookupStabilitySig:mean 	0.85687647170077
scalar Network.dyn_peer[49] 	lookupHopsSig:mean 	15.666666666667
scalar Network.dyn_peer[50] 	lookupTimeSig:mean 	3.3466666666667
scalar Network.dyn_peer[50] 	lookupStabilitySig:mean 	0.90032729071875
scalar Network.dyn_peer[50] 	lookupHopsSig:mean 	32.533333333333
scalar Network.dyn_peer[51] 	lookupTimeSig:mean 	2.285
scalar Network.dyn_peer[51] 	lookupStabilitySig:mean 	0.93425250273431
scalar Network.dyn_peer[51] 	lookupHopsSig:mean 	21.9
scalar Network.dyn_peer[52] 	lookupTimeSig:mean 	1.6526315789474
scalar Network.dyn_peer[52] 	lookupStabilitySig:mean 	0.91270231519287
scalar Network.dyn_peer[52] 	lookupHopsSig:mean 	15.578947368421
scalar Network.dyn_peer[53] 	lookupTimeSig:mean 	2.4692307692308
scalar Network.dyn_peer[53] 	lookupStabilitySig:mean 	0.88700456367447
scalar Network.dyn_peer[53] 	lookupHopsSig:mean 	23.769230769231
scalar Network.dyn_peer[54] 	lookupTimeSig:mean 	2.5173913043478
scalar Network.dyn_peer[54] 	lookupStabilitySig:mean 	0.91249573361458
scalar Network.dyn_peer[54] 	lookupHopsSig:mean 	24.217391304348
scalar Network.dyn_peer[55] 	lookupTimeSig:mean 	3.6
scalar Network.dyn_peer[55] 	lookupStabilitySig:mean 	0.92097949505612
scalar Network.dyn_peer[55] 	lookupHopsSig:mean 	35.052631578947
scalar Network.dyn_peer[56] 	lookupTimeSig:mean 	2.6684210526316
scalar Network.dyn_peer[56] 	lookupStabilitySig:mean 	0.91253722503193
scalar Network.dyn_peer[56] 	lookupHopsSig:mean 	25.736842105263
scalar Network.dyn_peer[57] 	lookupTimeSig:mean 	2.8333333333333
scalar Network.dyn_peer[57] 	lookupStabilitySig:mean 	0.89702141936868
scalar Network.dyn_peer[57] 	lookupHopsSig:mean 	27.388888888889
scalar Network.dyn_peer[58] 	lookupTimeSig:mean 	2.48125
scalar Network.dyn_peer[58] 	lookupStabilitySig:mean 	0.91827225120505
scalar Network.dyn_peer[58] 	lookupHopsSig:mean 	23.875
scalar Network.dyn_peer[59] 	lookupTimeSig:mean 	2.5125
scalar Network.dyn_peer[59] 	lookupStabilitySig:mean 	0.92011809784647
scalar Network.dyn_peer[59] 	lookupHopsSig:mean 	24.166666666667
scalar Network.dyn_peer[60] 	lookupTimeSig:mean 	2.32
scalar Network.dyn_peer[60] 	lookupStabilitySig:mean 	0.9238662078511
scalar Network.dyn_peer[60] 	lookupHopsSig:mean 	22.266666666667
scalar Network.dyn_peer[61] 	lookupTimeSig:mean 	2.4625
scalar Network.dyn_peer[61] 	lookupStabilitySig:mean 	0.91163716722804
scalar Network.dyn_peer[61] 	lookupHopsSig:mean 	23.6875
scalar Network.dyn_peer[62] 	lookupTimeSig:mean 	2.7909090909091
scalar Network.dyn_peer[62] 	lookupStabilitySig:mean 	0.8759810180107
scalar Network.dyn_peer[62] 	lookupHopsSig:mean 	27
scalar Network.dyn_peer[63] 	lookupTimeSig:mean 	3.3266666666667
scalar Network.dyn_peer[63] 	lookupStabilitySig:mean 	0.8833097611554
scalar Network.dyn_peer[63] 	lookupHopsSig:mean 	32.333333333333
scalar Network.dyn_peer[64] 	lookupTimeSig:mean 	2.2647058823529
scalar Network.dyn_peer[64] 	lookupStabilitySig:mean 	0.9203699821168
scalar Network.dyn_peer[64] 	lookupHopsSig:mean 	21.705882352941
scalar Network.dyn_peer[65] 	lookupTimeSig:mean 	2.3
scalar Network.dyn_peer[65] 	lookupStabilitySig:mean 	0.87809025505558
scalar Network.dyn_peer[65] 	lookupHopsSig:mean 	22.1
scalar Network.dyn_peer[66] 	lookupTimeSig:mean 	3.05
scalar Network.dyn_peer[66] 	lookupStabilitySig:mean 	0.91014988041882
scalar Network.dyn_peer[66] 	lookupHopsSig:mean 	29.571428571429
scalar Network.dyn_peer[67] 	lookupTimeSig:mean 	2.0315789473684
scalar Network.dyn_peer[67] 	lookupStabilitySig:mean 	0.91269692996713
scalar Network.dyn_peer[67] 	lookupHopsSig:mean 	19.368421052632
scalar Network.dyn_peer[68] 	lookupTimeSig:mean 	2.3235294117647
scalar Network.dyn_peer[68] 	lookupStabilitySig:mean 	0.90262276761453
scalar Network.dyn_peer[68] 	lookupHopsSig:mean 	22.294117647059
scalar Network.dyn_peer[69] 	lookupTimeSig:mean 	2.0173913043478
scalar Network.dyn_peer[69] 	lookupStabilitySig:mean 	0.92272952504699
scalar Network.dyn_peer[69] 	lookupHopsSig:mean 	19.217391304348
scalar Network.dyn_peer[70] 	lookupTimeSig:mean 	2.0133333333333
scalar Network.dyn_peer[70] 	lookupStabilitySig:mean 	0.91142257225389
scalar Network.dyn_peer[70] 	lookupHopsSig:mean 	19.2
scalar Network.dyn_peer[71] 	lookupTimeSig:mean 	2.3
scalar Network.dyn_peer[71] 	lookupStabilitySig:mean 	0.9153282679307
scalar Network.dyn_peer[71] 	lookupHopsSig:mean 	22.066666666667
scalar Network.dyn_peer[72] 	lookupTimeSig:mean 	2.7636363636364
scalar Network.dyn_peer[72] 	lookupStabilitySig:mean 	0.93432681511728
scalar Network.dyn_peer[72] 	lookupHopsSig:mean 	26.681818181818
scalar Network.dyn_peer[73] 	lookupTimeSig:mean 	2.5869565217391
scalar Network.dyn_peer[73] 	lookupStabilitySig:mean 	0.94019743388154
scalar Network.dyn_peer[73] 	lookupHopsSig:mean 	24.913043478261
scalar Network.dyn_peer[74] 	lookupTimeSig:mean 	2.4153846153846
scalar Network.dyn_peer[74] 	lookupStabilitySig:mean 	0.94694091580683
scalar Network.dyn_peer[74] 	lookupHopsSig:mean 	23.192307692308
scalar Network.dyn_peer[75] 	lookupTimeSig:mean 	2.32
scalar Network.dyn_peer[75] 	lookupStabilitySig:mean 	0.9402945713761
scalar Network.dyn_peer[75] 	lookupHopsSig:mean 	22.266666666667
scalar Network.dyn_peer[76] 	lookupTimeSig:mean 	3.1888888888889
scalar Network.dyn_peer[76] 	lookupStabilitySig:mean 	0.9319768562499
scalar Network.dyn_peer[76] 	lookupHopsSig:mean 	30.944444444444
scalar Network.dyn_peer[77] 	lookupTimeSig:mean 	2.2578947368421
scalar Network.dyn_peer[77] 	lookupStabilitySig:mean 	0.92012344004194
scalar Network.dyn_peer[77] 	lookupHopsSig:mean 	21.631578947368
scalar Network.dyn_peer[78] 	lookupTimeSig:mean 	1.9357142857143
scalar Network.dyn_peer[78] 	lookupStabilitySig:mean 	0.91031024930999
scalar Network.dyn_peer[78] 	lookupHopsSig:mean 	18.428571428571
scalar Network.dyn_peer[79] 	lookupTimeSig:mean 	2.5818181818182
scalar Network.dyn_peer[79] 	lookupStabilitySig:mean 	0.8843519676646
scalar Network.dyn_peer[79] 	lookupHopsSig:mean 	24.909090909091
scalar Network.dyn_peer[80] 	lookupTimeSig:mean 	2.7588235294118
scalar Network.dyn_peer[80] 	lookupStabilitySig:mean 	0.92562878520831
scalar Network.dyn_peer[80] 	lookupHopsSig:mean 	26.647058823529
scalar Network.dyn_peer[81] 	lookupTimeSig:mean 	3.18
scalar Network.dyn_peer[81] 	lookupStabilitySig:mean 	0.87670087339357
scalar Network.dyn_peer[81] 	lookupHopsSig:mean 	30.9
scalar Network.dyn_peer[82] 	lookupTimeSig:mean 	1.4583333333333
scalar Network.dyn_peer[82] 	lookupStabilitySig:mean 	0.91985700124254
scalar Network.dyn_peer[82] 	lookupHopsSig:mean 	13.666666666667
scalar Network.dyn_peer[83] 	lookupTimeSig:mean 	2.6434782608696
scalar Network.dyn_peer[83] 	lookupStabilitySig:mean 	0.9385981189907
scalar Network.dyn_peer[83] 	lookupHopsSig:mean 	25.478260869565
scalar Network.dyn_peer[84] 	lookupTimeSig:mean 	2.08125
scalar Network.dyn_peer[84] 	lookupStabilitySig:mean 	0.91061824403005
scalar Network.dyn_peer[84] 	lookupHopsSig:mean 	19.875
scalar Network.dyn_peer[85] 	lookupTimeSig:mean 	2.0789473684211
scalar Network.dyn_peer[85] 	lookupStabilitySig:mean 	0.94976233618677
scalar Network.dyn_peer[85] 	lookupHopsSig:mean 	19.842105263158
scalar Network.dyn_peer[86] 	lookupTimeSig:mean 	3.1631578947368
scalar Network.dyn_peer[86] 	lookupStabilitySig:mean 	0.93187350120493
scalar Network.dyn_peer[86] 	lookupHopsSig:mean 	30.684210526316
scalar Network.dyn_peer[87] 	lookupTimeSig:mean 	2.4352941176471
scalar Network.dyn_peer[87] 	lookupStabilitySig:mean 	0.92743986519054
scalar Network.dyn_peer[87] 	lookupHopsSig:mean 	23.411764705882
scalar Network.dyn_peer[88] 	lookupTimeSig:mean 	1.94375
scalar Network.dyn_peer[88] 	lookupStabilitySig:mean 	0.91887880730792
scalar Network.dyn_peer[88] 	lookupHopsSig:mean 	18.5
scalar Network.dyn_peer[89] 	lookupTimeSig:mean 	1.705
scalar Network.dyn_peer[89] 	lookupStabilitySig:mean 	0.9453441030113
scalar Network.dyn_peer[89] 	lookupHopsSig:mean 	16.1
scalar Network.dyn_peer[90] 	lookupTimeSig:mean 	2.9470588235294
scalar Network.dyn_peer[90] 	lookupStabilitySig:mean 	0.922867537887
scalar Network.dyn_peer[90] 	lookupHopsSig:mean 	28.529411764706
scalar Network.dyn_peer[91] 	lookupTimeSig:mean 	2.7076923076923
scalar Network.dyn_peer[91] 	lookupStabilitySig:mean 	0.921028209689
scalar Network.dyn_peer[91] 	lookupHopsSig:mean 	26.153846153846
scalar Network.dyn_peer[92] 	lookupTimeSig:mean 	2.3923076923077
scalar Network.dyn_peer[92] 	lookupStabilitySig:mean 	0.9150810583423
scalar Network.dyn_peer[92] 	lookupHopsSig:mean 	23
scalar Network.dyn_peer[93] 	lookupTimeSig:mean 	1.3357142857143
scalar Network.dyn_peer[93] 	lookupStabilitySig:mean 	0.9122126086482
scalar Network.dyn_peer[93] 	lookupHopsSig:mean 	12.428571428571
scalar Network.dyn_peer[94] 	lookupTimeSig:mean 	2.6615384615385
scalar Network.dyn_peer[94] 	lookupStabilitySig:mean 	0.89851599236807
scalar Network.dyn_peer[94] 	lookupHopsSig:mean 	25.692307692308
scalar Network.dyn_peer[95] 	lookupTimeSig:mean 	1.5
scalar Network.dyn_peer[95] 	lookupStabilitySig:mean 	0.87400316992509
scalar Network.dyn_peer[95] 	lookupHopsSig:mean 	14.142857142857
scalar Network.dyn_peer[96] 	lookupTimeSig:mean 	2.0875
scalar Network.dyn_peer[96] 	lookupStabilitySig:mean 	0.93486094727996
scalar Network.dyn_peer[96] 	lookupHopsSig:mean 	19.9375
scalar Network.dyn_peer[97] 	lookupTimeSig:mean 	2.1
scalar Network.dyn_peer[97] 	lookupStabilitySig:mean 	0.89778140500527
scalar Network.dyn_peer[97] 	lookupHopsSig:mean 	20.090909090909
scalar Network.dyn_peer[98] 	lookupTimeSig:mean 	1.9357142857143
scalar Network.dyn_peer[98] 	lookupStabilitySig:mean 	0.92705030338506
scalar Network.dyn_peer[98] 	lookupHopsSig:mean 	18.428571428571
scalar Network.dyn_peer[99] 	lookupTimeSig:mean 	2.3769230769231
scalar Network.dyn_peer[99] 	lookupStabilitySig:mean 	0.93000770850967
scalar Network.dyn_peer[99] 	lookupHopsSig:mean 	22.846153846154
scalar Network.dyn_peer[100] 	lookupTimeSig:mean 	2.3916666666667
scalar Network.dyn_peer[100] 	lookupStabilitySig:mean 	0.95539755813661
scalar Network.dyn_peer[100] 	lookupHopsSig:mean 	22.958333333333
scalar Network.dyn_peer[101] 	lookupTimeSig:mean 	2.2764705882353
scalar Network.dyn_peer[101] 	lookupStabilitySig:mean 	0.92908668833073
scalar Network.dyn_peer[101] 	lookupHopsSig:mean 	21.823529411765
scalar Network.dyn_peer[102] 	lookupTimeSig:mean 	2.9066666666667
scalar Network.dyn_peer[102] 	lookupStabilitySig:mean 	0.9173377601585
scalar Network.dyn_peer[102] 	lookupHopsSig:mean 	28.133333333333
scalar Network.dyn_peer[103] 	lookupTimeSig:mean 	2.0611111111111
scalar Network.dyn_peer[103] 	lookupStabilitySig:mean 	0.93589852763236
scalar Network.dyn_peer[103] 	lookupHopsSig:mean 	19.666666666667
scalar Network.dyn_peer[104] 	lookupTimeSig:mean 	1.9473684210526
scalar Network.dyn_peer[104] 	lookupStabilitySig:mean 	0.93679567441148
scalar Network.dyn_peer[104] 	lookupHopsSig:mean 	18.526315789474
scalar Network.dyn_peer[105] 	lookupTimeSig:mean 	2.4266666666667
scalar Network.dyn_peer[105] 	lookupStabilitySig:mean 	0.93500302065319
scalar Network.dyn_peer[105] 	lookupHopsSig:mean 	23.333333333333
scalar Network.dyn_peer[106] 	lookupTimeSig:mean 	2.2222222222222
scalar Network.dyn_peer[106] 	lookupStabilitySig:mean 	0.93847106239345
scalar Network.dyn_peer[106] 	lookupHopsSig:mean 	21.277777777778
scalar Network.dyn_peer[107] 	lookupTimeSig:mean 	2.7642857142857
scalar Network.dyn_peer[107] 	lookupStabilitySig:mean 	0.92089514392761
scalar Network.dyn_peer[107] 	lookupHopsSig:mean 	26.714285714286
scalar Network.dyn_peer[108] 	lookupTimeSig:mean 	2.0190476190476
scalar Network.dyn_peer[108] 	lookupStabilitySig:mean 	0.95055905461223
scalar Network.dyn_peer[108] 	lookupHopsSig:mean 	19.238095238095
scalar Network.dyn_peer[109] 	lookupTimeSig:mean 	2.14
scalar Network.dyn_peer[109] 	lookupStabilitySig:mean 	0.94285260109852
scalar Network.dyn_peer[109] 	lookupHopsSig:mean 	20.466666666667
scalar Network.dyn_peer[110] 	lookupTimeSig:mean 	2.62
scalar Network.dyn_peer[110] 	lookupStabilitySig:mean 	0.94521327803377
scalar Network.dyn_peer[110] 	lookupHopsSig:mean 	25.25
scalar Network.dyn_peer[111] 	lookupTimeSig:mean 	3.0444444444444
scalar Network.dyn_peer[111] 	lookupStabilitySig:mean 	0.93501435860526
scalar Network.dyn_peer[111] 	lookupHopsSig:mean 	29.5
scalar Network.dyn_peer[112] 	lookupTimeSig:mean 	2.355
scalar Network.dyn_peer[112] 	lookupStabilitySig:mean 	0.94843305675313
scalar Network.dyn_peer[112] 	lookupHopsSig:mean 	22.6
scalar Network.dyn_peer[113] 	lookupTimeSig:mean 	3.2583333333333
scalar Network.dyn_peer[113] 	lookupStabilitySig:mean 	0.93274431404037
scalar Network.dyn_peer[113] 	lookupHopsSig:mean 	31.666666666667
scalar Network.dyn_peer[114] 	lookupTimeSig:mean 	1.4818181818182
scalar Network.dyn_peer[114] 	lookupStabilitySig:mean 	0.90440054983959
scalar Network.dyn_peer[114] 	lookupHopsSig:mean 	13.909090909091
scalar Network.dyn_peer[115] 	lookupTimeSig:mean 	2.3111111111111
scalar Network.dyn_peer[115] 	lookupStabilitySig:mean 	0.9073206546406
scalar Network.dyn_peer[115] 	lookupHopsSig:mean 	22.222222222222
scalar Network.dyn_peer[116] 	lookupTimeSig:mean 	3.1466666666667
scalar Network.dyn_peer[116] 	lookupStabilitySig:mean 	0.91958324958881
scalar Network.dyn_peer[116] 	lookupHopsSig:mean 	30.533333333333
scalar Network.dyn_peer[117] 	lookupTimeSig:mean 	1.99
scalar Network.dyn_peer[117] 	lookupStabilitySig:mean 	0.91376245588763
scalar Network.dyn_peer[117] 	lookupHopsSig:mean 	19
scalar Network.dyn_peer[118] 	lookupTimeSig:mean 	3.0882352941176
scalar Network.dyn_peer[118] 	lookupStabilitySig:mean 	0.94018326297074
scalar Network.dyn_peer[118] 	lookupHopsSig:mean 	29.941176470588
scalar Network.dyn_peer[119] 	lookupTimeSig:mean 	2.615
scalar Network.dyn_peer[119] 	lookupStabilitySig:mean 	0.96338637633016
scalar Network.dyn_peer[119] 	lookupHopsSig:mean 	25.2
scalar Network.dyn_peer[120] 	lookupTimeSig:mean 	3.2909090909091
scalar Network.dyn_peer[120] 	lookupStabilitySig:mean 	0.95137912421276
scalar Network.dyn_peer[120] 	lookupHopsSig:mean 	31.954545454545
scalar Network.dyn_peer[121] 	lookupTimeSig:mean 	2.7470588235294
scalar Network.dyn_peer[121] 	lookupStabilitySig:mean 	0.93348093347295
scalar Network.dyn_peer[121] 	lookupHopsSig:mean 	26.529411764706
scalar Network.dyn_peer[122] 	lookupTimeSig:mean 	2.5555555555556
scalar Network.dyn_peer[122] 	lookupStabilitySig:mean 	0.88897331762645
scalar Network.dyn_peer[122] 	lookupHopsSig:mean 	24.666666666667
scalar Network.dyn_peer[123] 	lookupTimeSig:mean 	2.1894736842105
scalar Network.dyn_peer[123] 	lookupStabilitySig:mean 	0.94890270512061
scalar Network.dyn_peer[123] 	lookupHopsSig:mean 	20.947368421053
scalar Network.dyn_peer[124] 	lookupTimeSig:mean 	1.9
scalar Network.dyn_peer[124] 	lookupStabilitySig:mean 	0.9023075196892
scalar Network.dyn_peer[124] 	lookupHopsSig:mean 	18.142857142857
scalar Network.dyn_peer[125] 	lookupTimeSig:mean 	2.2727272727273
scalar Network.dyn_peer[125] 	lookupStabilitySig:mean 	0.91175401176919
scalar Network.dyn_peer[125] 	lookupHopsSig:mean 	21.818181818182
scalar Network.dyn_peer[126] 	lookupTimeSig:mean 	3.25625
scalar Network.dyn_peer[126] 	lookupStabilitySig:mean 	0.94322662201012
scalar Network.dyn_peer[126] 	lookupHopsSig:mean 	31.625
scalar Network.dyn_peer[127] 	lookupTimeSig:mean 	2.3826086956522
scalar Network.dyn_peer[127] 	lookupStabilitySig:mean 	0.95207322010285
scalar Network.dyn_peer[127] 	lookupHopsSig:mean 	22.869565217391
scalar Network.dyn_peer[128] 	lookupTimeSig:mean 	2.7368421052632
scalar Network.dyn_peer[128] 	lookupStabilitySig:mean 	0.94700408380748
scalar Network.dyn_peer[128] 	lookupHopsSig:mean 	26.421052631579
scalar Network.dyn_peer[129] 	lookupTimeSig:mean 	2.9
scalar Network.dyn_peer[129] 	lookupStabilitySig:mean 	0.95362720913719
scalar Network.dyn_peer[129] 	lookupHopsSig:mean 	28.04
scalar Network.dyn_peer[130] 	lookupTimeSig:mean 	2.86875
scalar Network.dyn_peer[130] 	lookupStabilitySig:mean 	0.94168353761779
scalar Network.dyn_peer[130] 	lookupHopsSig:mean 	27.75
scalar Network.dyn_peer[131] 	lookupTimeSig:mean 	1.8684210526316
scalar Network.dyn_peer[131] 	lookupStabilitySig:mean 	0.94519552981211
scalar Network.dyn_peer[131] 	lookupHopsSig:mean 	17.736842105263
scalar Network.dyn_peer[132] 	lookupTimeSig:mean 	2.51
scalar Network.dyn_peer[132] 	lookupStabilitySig:mean 	0.95737487796287
scalar Network.dyn_peer[132] 	lookupHopsSig:mean 	24.15
scalar Network.dyn_peer[133] 	lookupTimeSig:mean 	2.5181818181818
scalar Network.dyn_peer[133] 	lookupStabilitySig:mean 	0.93274826681326
scalar Network.dyn_peer[133] 	lookupHopsSig:mean 	24.272727272727
scalar Network.dyn_peer[134] 	lookupTimeSig:mean 	2.00625
scalar Network.dyn_peer[134] 	lookupStabilitySig:mean 	0.95103298581671
scalar Network.dyn_peer[134] 	lookupHopsSig:mean 	19.125
scalar Network.dyn_peer[135] 	lookupTimeSig:mean 	1.6692307692308
scalar Network.dyn_peer[135] 	lookupStabilitySig:mean 	0.92215121609087
scalar Network.dyn_peer[135] 	lookupHopsSig:mean 	15.769230769231
scalar Network.dyn_peer[136] 	lookupTimeSig:mean 	2.2818181818182
scalar Network.dyn_peer[136] 	lookupStabilitySig:mean 	0.92419601447711
scalar Network.dyn_peer[136] 	lookupHopsSig:mean 	21.909090909091
scalar Network.dyn_peer[137] 	lookupTimeSig:mean 	2.6428571428571
scalar Network.dyn_peer[137] 	lookupStabilitySig:mean 	0.92418241800208
scalar Network.dyn_peer[137] 	lookupHopsSig:mean 	25.5
scalar Network.dyn_peer[138] 	lookupTimeSig:mean 	3.18
scalar Network.dyn_peer[138] 	lookupStabilitySig:mean 	0.91679259557277
scalar Network.dyn_peer[138] 	lookupHopsSig:mean 	30.9
scalar Network.dyn_peer[139] 	lookupTimeSig:mean 	2.05
scalar Network.dyn_peer[139] 	lookupStabilitySig:mean 	0.95980701592219
scalar Network.dyn_peer[139] 	lookupHopsSig:mean 	19.535714285714
scalar Network.dyn_peer[140] 	lookupTimeSig:mean 	3.2933333333333
scalar Network.dyn_peer[140] 	lookupStabilitySig:mean 	0.94434520533929
scalar Network.dyn_peer[140] 	lookupHopsSig:mean 	32
scalar Network.dyn_peer[141] 	lookupTimeSig:mean 	2.2944444444444
scalar Network.dyn_peer[141] 	lookupStabilitySig:mean 	0.9563841648762
scalar Network.dyn_peer[141] 	lookupHopsSig:mean 	22
scalar Network.dyn_peer[142] 	lookupTimeSig:mean 	3
scalar Network.dyn_peer[142] 	lookupStabilitySig:mean 	0.94587402708609
scalar Network.dyn_peer[142] 	lookupHopsSig:mean 	29.058823529412
scalar Network.dyn_peer[143] 	lookupTimeSig:mean 	1.6944444444444
scalar Network.dyn_peer[143] 	lookupStabilitySig:mean 	0.94791296709122
scalar Network.dyn_peer[143] 	lookupHopsSig:mean 	16
scalar Network.dyn_peer[144] 	lookupTimeSig:mean 	2.2888888888889
scalar Network.dyn_peer[144] 	lookupStabilitySig:mean 	0.95049308020518
scalar Network.dyn_peer[144] 	lookupHopsSig:mean 	21.944444444444
scalar Network.dyn_peer[145] 	lookupTimeSig:mean 	1.9777777777778
scalar Network.dyn_peer[145] 	lookupStabilitySig:mean 	0.95311003790185
scalar Network.dyn_peer[145] 	lookupHopsSig:mean 	18.833333333333
scalar Network.dyn_peer[146] 	lookupTimeSig:mean 	1.4466666666667
scalar Network.dyn_peer[146] 	lookupStabilitySig:mean 	0.94110847731742
scalar Network.dyn_peer[146] 	lookupHopsSig:mean 	13.533333333333
scalar Network.dyn_peer[147] 	lookupTimeSig:mean 	2.4833333333333
scalar Network.dyn_peer[147] 	lookupStabilitySig:mean 	0.94613320796957
scalar Network.dyn_peer[147] 	lookupHopsSig:mean 	23.888888888889
scalar Network.dyn_peer[148] 	lookupTimeSig:mean 	3.6352941176471
scalar Network.dyn_peer[148] 	lookupStabilitySig:mean 	0.94579610280583
scalar Network.dyn_peer[148] 	lookupHopsSig:mean 	35.411764705882
scalar Network.dyn_peer[149] 	lookupTimeSig:mean 	3.6636363636364
scalar Network.dyn_peer[149] 	lookupStabilitySig:mean 	0.91392894487151
scalar Network.dyn_peer[149] 	lookupHopsSig:mean 	35.727272727273
scalar Network.dyn_peer[150] 	lookupTimeSig:mean 	2.2615384615385
scalar Network.dyn_peer[150] 	lookupStabilitySig:mean 	0.93775986439477
scalar Network.dyn_peer[150] 	lookupHopsSig:mean 	21.692307692308
scalar Network.dyn_peer[151] 	lookupTimeSig:mean 	1.705
scalar Network.dyn_peer[151] 	lookupStabilitySig:mean 	0.9521925794892
scalar Network.dyn_peer[151] 	lookupHopsSig:mean 	16.1
scalar Network.dyn_peer[152] 	lookupTimeSig:mean 	2.1090909090909
scalar Network.dyn_peer[152] 	lookupStabilitySig:mean 	0.92197074478661
scalar Network.dyn_peer[152] 	lookupHopsSig:mean 	20.181818181818
scalar Network.dyn_peer[153] 	lookupTimeSig:mean 	2.9260869565217
scalar Network.dyn_peer[153] 	lookupStabilitySig:mean 	0.95986087042231
scalar Network.dyn_peer[153] 	lookupHopsSig:mean 	28.304347826087
scalar Network.dyn_peer[154] 	lookupTimeSig:mean 	3.4
scalar Network.dyn_peer[154] 	lookupStabilitySig:mean 	0.94786604663823
scalar Network.dyn_peer[154] 	lookupHopsSig:mean 	33.05
scalar Network.dyn_peer[155] 	lookupTimeSig:mean 	1.4538461538462
scalar Network.dyn_peer[155] 	lookupStabilitySig:mean 	0.93686297636193
scalar Network.dyn_peer[155] 	lookupHopsSig:mean 	13.615384615385
scalar Network.dyn_peer[156] 	lookupTimeSig:mean 	1.2571428571429
scalar Network.dyn_peer[156] 	lookupStabilitySig:mean 	0.90311656599598
scalar Network.dyn_peer[156] 	lookupHopsSig:mean 	11.714285714286
scalar Network.dyn_peer[157] 	lookupTimeSig:mean 	2.1625
scalar Network.dyn_peer[157] 	lookupStabilitySig:mean 	0.94255565405183
scalar Network.dyn_peer[157] 	lookupHopsSig:mean 	20.6875
scalar Network.dyn_peer[158] 	lookupTimeSig:mean 	2.8222222222222
scalar Network.dyn_peer[158] 	lookupStabilitySig:mean 	0.92026015557349
scalar Network.dyn_peer[158] 	lookupHopsSig:mean 	27.333333333333
scalar Network.dyn_peer[159] 	lookupTimeSig:mean 	2.8210526315789
scalar Network.dyn_peer[159] 	lookupStabilitySig:mean 	0.94772726540013
scalar Network.dyn_peer[159] 	lookupHopsSig:mean 	27.263157894737
scalar Network.dyn_peer[160] 	lookupTimeSig:mean 	1.7962962962963
scalar Network.dyn_peer[160] 	lookupStabilitySig:mean 	0.96314654957193
scalar Network.dyn_peer[160] 	lookupHopsSig:mean 	17
scalar Network.dyn_peer[161] 	lookupTimeSig:mean 	2.1384615384615
scalar Network.dyn_peer[161] 	lookupStabilitySig:mean 	0.93308897517048
scalar Network.dyn_peer[161] 	lookupHopsSig:mean 	20.461538461538
scalar Network.dyn_peer[162] 	lookupTimeSig:mean 	2.9666666666667
scalar Network.dyn_peer[162] 	lookupStabilitySig:mean 	0.94319916930464
scalar Network.dyn_peer[162] 	lookupHopsSig:mean 	28.722222222222
scalar Network.dyn_peer[163] 	lookupTimeSig:mean 	2.5764705882353
scalar Network.dyn_peer[163] 	lookupStabilitySig:mean 	0.94505128899918
scalar Network.dyn_peer[163] 	lookupHopsSig:mean 	24.823529411765
scalar Network.dyn_peer[164] 	lookupTimeSig:mean 	2.1066666666667
scalar Network.dyn_peer[164] 	lookupStabilitySig:mean 	0.94577395444115
scalar Network.dyn_peer[164] 	lookupHopsSig:mean 	20.133333333333
scalar Network.dyn_peer[165] 	lookupTimeSig:mean 	2.26
scalar Network.dyn_peer[165] 	lookupStabilitySig:mean 	0.94457973788182
scalar Network.dyn_peer[165] 	lookupHopsSig:mean 	21.666666666667
scalar Network.dyn_peer[166] 	lookupTimeSig:mean 	2.3470588235294
scalar Network.dyn_peer[166] 	lookupStabilitySig:mean 	0.95584112498909
scalar Network.dyn_peer[166] 	lookupHopsSig:mean 	22.529411764706
scalar Network.dyn_peer[167] 	lookupTimeSig:mean 	2.7
scalar Network.dyn_peer[167] 	lookupStabilitySig:mean 	0.93927978393104
scalar Network.dyn_peer[167] 	lookupHopsSig:mean 	26.111111111111
scalar Network.dyn_peer[168] 	lookupTimeSig:mean 	4.2125
scalar Network.dyn_peer[168] 	lookupStabilitySig:mean 	0.92645257408731
scalar Network.dyn_peer[168] 	lookupHopsSig:mean 	41.25
scalar Network.dyn_peer[169] 	lookupTimeSig:mean 	2.2379310344828
scalar Network.dyn_peer[169] 	lookupStabilitySig:mean 	0.96848921132162
scalar Network.dyn_peer[169] 	lookupHopsSig:mean 	21.413793103448
scalar Network.dyn_peer[170] 	lookupTimeSig:mean 	2.9176470588235
scalar Network.dyn_peer[170] 	lookupStabilitySig:mean 	0.95101906305782
scalar Network.dyn_peer[170] 	lookupHopsSig:mean 	28.235294117647
scalar Network.dyn_peer[171] 	lookupTimeSig:mean 	3.3
scalar Network.dyn_peer[171] 	lookupStabilitySig:mean 	0.95610366165379
scalar Network.dyn_peer[171] 	lookupHopsSig:mean 	32.055555555556
scalar Network.dyn_peer[172] 	lookupTimeSig:mean 	2.5608695652174
scalar Network.dyn_peer[172] 	lookupStabilitySig:mean 	0.96002707253311
scalar Network.dyn_peer[172] 	lookupHopsSig:mean 	24.652173913043
scalar Network.dyn_peer[173] 	lookupTimeSig:mean 	2.6444444444444
scalar Network.dyn_peer[173] 	lookupStabilitySig:mean 	0.95694500862414
scalar Network.dyn_peer[173] 	lookupHopsSig:mean 	25.5
scalar Network.dyn_peer[174] 	lookupTimeSig:mean 	4.0692307692308
scalar Network.dyn_peer[174] 	lookupStabilitySig:mean 	0.94055088004097
scalar Network.dyn_peer[174] 	lookupHopsSig:mean 	39.769230769231
scalar Network.dyn_peer[175] 	lookupTimeSig:mean 	1.6909090909091
scalar Network.dyn_peer[175] 	lookupStabilitySig:mean 	0.94298007398505
scalar Network.dyn_peer[175] 	lookupHopsSig:mean 	16
scalar Network.dyn_peer[176] 	lookupTimeSig:mean 	3.2785714285714
scalar Network.dyn_peer[176] 	lookupStabilitySig:mean 	0.94895753523867
scalar Network.dyn_peer[176] 	lookupHopsSig:mean 	31.857142857143
scalar Network.dyn_peer[177] 	lookupTimeSig:mean 	2.8555555555556
scalar Network.dyn_peer[177] 	lookupStabilitySig:mean 	0.95194491778966
scalar Network.dyn_peer[177] 	lookupHopsSig:mean 	27.611111111111
scalar Network.dyn_peer[178] 	lookupTimeSig:mean 	1.7555555555556
scalar Network.dyn_peer[178] 	lookupStabilitySig:mean 	0.93519254618635
scalar Network.dyn_peer[178] 	lookupHopsSig:mean 	16.666666666667
scalar Network.dyn_peer[179] 	lookupTimeSig:mean 	2.2088235294118
scalar Network.dyn_peer[179] 	lookupStabilitySig:mean 	0.97571910072549
scalar Network.dyn_peer[179] 	lookupHopsSig:mean 	21.117647058824
scalar Network.dyn_peer[180] 	lookupTimeSig:mean 	2.3
scalar Network.dyn_peer[180] 	lookupStabilitySig:mean 	0.95500410869718
scalar Network.dyn_peer[180] 	lookupHopsSig:mean 	22.066666666667
scalar Network.dyn_peer[181] 	lookupTimeSig:mean 	2.712
scalar Network.dyn_peer[181] 	lookupStabilitySig:mean 	0.96044096630998
scalar Network.dyn_peer[181] 	lookupHopsSig:mean 	26.16
scalar Network.dyn_peer[182] 	lookupTimeSig:mean 	2.5928571428571
scalar Network.dyn_peer[182] 	lookupStabilitySig:mean 	0.96147363173908
scalar Network.dyn_peer[182] 	lookupHopsSig:mean 	25
scalar Network.dyn_peer[183] 	lookupTimeSig:mean 	1.7375
scalar Network.dyn_peer[183] 	lookupStabilitySig:mean 	0.93953827556106
scalar Network.dyn_peer[183] 	lookupHopsSig:mean 	16.5
scalar Network.dyn_peer[184] 	lookupTimeSig:mean 	2.7235294117647
scalar Network.dyn_peer[184] 	lookupStabilitySig:mean 	0.95695358610657
scalar Network.dyn_peer[184] 	lookupHopsSig:mean 	26.294117647059
scalar Network.dyn_peer[185] 	lookupTimeSig:mean 	3.1705882352941
scalar Network.dyn_peer[185] 	lookupStabilitySig:mean 	0.95909241949181
scalar Network.dyn_peer[185] 	lookupHopsSig:mean 	30.764705882353
scalar Network.dyn_peer[186] 	lookupTimeSig:mean 	2.2888888888889
scalar Network.dyn_peer[186] 	lookupStabilitySig:mean 	0.9712424849298
scalar Network.dyn_peer[186] 	lookupHopsSig:mean 	21.925925925926
scalar Network.dyn_peer[187] 	lookupTimeSig:mean 	1.6285714285714
scalar Network.dyn_peer[187] 	lookupStabilitySig:mean 	0.96270843994405
scalar Network.dyn_peer[187] 	lookupHopsSig:mean 	15.357142857143
scalar Network.dyn_peer[188] 	lookupTimeSig:mean 	2.6555555555556
scalar Network.dyn_peer[188] 	lookupStabilitySig:mean 	0.95664077635027
scalar Network.dyn_peer[188] 	lookupHopsSig:mean 	25.611111111111
scalar Network.dyn_peer[189] 	lookupTimeSig:mean 	1.4083333333333
scalar Network.dyn_peer[189] 	lookupStabilitySig:mean 	0.94433275874083
scalar Network.dyn_peer[189] 	lookupHopsSig:mean 	13.166666666667
scalar Network.dyn_peer[190] 	lookupTimeSig:mean 	2.9391304347826
scalar Network.dyn_peer[190] 	lookupStabilitySig:mean 	0.96042877921592
scalar Network.dyn_peer[190] 	lookupHopsSig:mean 	28.434782608696
scalar Network.dyn_peer[191] 	lookupTimeSig:mean 	2.3272727272727
scalar Network.dyn_peer[191] 	lookupStabilitySig:mean 	0.9325099860064
scalar Network.dyn_peer[191] 	lookupHopsSig:mean 	22.363636363636
scalar Network.dyn_peer[192] 	lookupTimeSig:mean 	2.6
scalar Network.dyn_peer[192] 	lookupStabilitySig:mean 	0.9532446723509
scalar Network.dyn_peer[192] 	lookupHopsSig:mean 	25.055555555556
scalar Network.dyn_peer[193] 	lookupTimeSig:mean 	3.0615384615385
scalar Network.dyn_peer[193] 	lookupStabilitySig:mean 	0.93826513501027
scalar Network.dyn_peer[193] 	lookupHopsSig:mean 	29.692307692308
scalar Network.dyn_peer[194] 	lookupTimeSig:mean 	2.8705882352941
scalar Network.dyn_peer[194] 	lookupStabilitySig:mean 	0.9593035178259
scalar Network.dyn_peer[194] 	lookupHopsSig:mean 	27.764705882353
scalar Network.dyn_peer[195] 	lookupTimeSig:mean 	1.755
scalar Network.dyn_peer[195] 	lookupStabilitySig:mean 	0.95986842954881
scalar Network.dyn_peer[195] 	lookupHopsSig:mean 	16.6
scalar Network.dyn_peer[196] 	lookupTimeSig:mean 	2.1666666666667
scalar Network.dyn_peer[196] 	lookupStabilitySig:mean 	0.95563116131557
scalar Network.dyn_peer[196] 	lookupHopsSig:mean 	20.722222222222
scalar Network.dyn_peer[197] 	lookupTimeSig:mean 	2.2583333333333
scalar Network.dyn_peer[197] 	lookupStabilitySig:mean 	0.93981976970099
scalar Network.dyn_peer[197] 	lookupHopsSig:mean 	21.666666666667
scalar Network.dyn_peer[198] 	lookupTimeSig:mean 	2.3866666666667
scalar Network.dyn_peer[198] 	lookupStabilitySig:mean 	0.96741357700278
scalar Network.dyn_peer[198] 	lookupHopsSig:mean 	22.933333333333
scalar Network.dyn_peer[199] 	lookupTimeSig:mean 	2.25
scalar Network.dyn_peer[199] 	lookupStabilitySig:mean 	0.89495291064183
scalar Network.dyn_peer[199] 	lookupHopsSig:mean 	21.666666666667
scalar Network.dyn_peer[200] 	lookupTimeSig:mean 	2.575
scalar Network.dyn_peer[200] 	lookupStabilitySig:mean 	0.94691286135154
scalar Network.dyn_peer[200] 	lookupHopsSig:mean 	24.833333333333
scalar Network.dyn_peer[201] 	lookupTimeSig:mean 	2.5222222222222
scalar Network.dyn_peer[201] 	lookupStabilitySig:mean 	0.96167487027641
scalar Network.dyn_peer[201] 	lookupHopsSig:mean 	24.277777777778
scalar Network.dyn_peer[202] 	lookupTimeSig:mean 	2.6
scalar Network.dyn_peer[202] 	lookupStabilitySig:mean 	0.96023902202335
scalar Network.dyn_peer[202] 	lookupHopsSig:mean 	25.066666666667
scalar Network.dyn_peer[203] 	lookupTimeSig:mean 	1.8153846153846
scalar Network.dyn_peer[203] 	lookupStabilitySig:mean 	0.94375460272512
scalar Network.dyn_peer[203] 	lookupHopsSig:mean 	17.230769230769
scalar Network.dyn_peer[204] 	lookupTimeSig:mean 	2.71
scalar Network.dyn_peer[204] 	lookupStabilitySig:mean 	0.92831164766103
scalar Network.dyn_peer[204] 	lookupHopsSig:mean 	26.2
scalar Network.dyn_peer[205] 	lookupTimeSig:mean 	2.2
scalar Network.dyn_peer[205] 	lookupStabilitySig:mean 	0.95972905061208
scalar Network.dyn_peer[205] 	lookupHopsSig:mean 	21.05
scalar Network.dyn_peer[206] 	lookupTimeSig:mean 	2.1181818181818
scalar Network.dyn_peer[206] 	lookupStabilitySig:mean 	0.93866977764463
scalar Network.dyn_peer[206] 	lookupHopsSig:mean 	20.272727272727
scalar Network.dyn_peer[207] 	lookupTimeSig:mean 	2.4666666666667
scalar Network.dyn_peer[207] 	lookupStabilitySig:mean 	0.95035358220339
scalar Network.dyn_peer[207] 	lookupHopsSig:mean 	23.733333333333
scalar Network.dyn_peer[208] 	lookupTimeSig:mean 	2.8352941176471
scalar Network.dyn_peer[208] 	lookupStabilitySig:mean 	0.9484151831335
scalar Network.dyn_peer[208] 	lookupHopsSig:mean 	27.411764705882
scalar Network.dyn_peer[209] 	lookupTimeSig:mean 	2.9
scalar Network.dyn_peer[209] 	lookupStabilitySig:mean 	0.96531416880696
scalar Network.dyn_peer[209] 	lookupHopsSig:mean 	28.04347826087
scalar Network.dyn_peer[210] 	lookupTimeSig:mean 	2.7833333333333
scalar Network.dyn_peer[210] 	lookupStabilitySig:mean 	0.91173670471956
scalar Network.dyn_peer[210] 	lookupHopsSig:mean 	27
scalar Network.dyn_peer[211] 	lookupTimeSig:mean 	2.3461538461538
scalar Network.dyn_peer[211] 	lookupStabilitySig:mean 	0.95003077710191
scalar Network.dyn_peer[211] 	lookupHopsSig:mean 	22.538461538462
scalar Network.dyn_peer[212] 	lookupTimeSig:mean 	2.80625
scalar Network.dyn_peer[212] 	lookupStabilitySig:mean 	0.96107185684377
scalar Network.dyn_peer[212] 	lookupHopsSig:mean 	27.125
scalar Network.dyn_peer[213] 	lookupTimeSig:mean 	3.1470588235294
scalar Network.dyn_peer[213] 	lookupStabilitySig:mean 	0.95173255310339
scalar Network.dyn_peer[213] 	lookupHopsSig:mean 	30.529411764706
scalar Network.dyn_peer[214] 	lookupTimeSig:mean 	2.7071428571429
scalar Network.dyn_peer[214] 	lookupStabilitySig:mean 	0.95164795958304
scalar Network.dyn_peer[214] 	lookupHopsSig:mean 	26.142857142857
scalar Network.dyn_peer[215] 	lookupTimeSig:mean 	2.82
scalar Network.dyn_peer[215] 	lookupStabilitySig:mean 	0.94924254415867
scalar Network.dyn_peer[215] 	lookupHopsSig:mean 	27.266666666667
scalar Network.dyn_peer[216] 	lookupTimeSig:mean 	2.1294117647059
scalar Network.dyn_peer[216] 	lookupStabilitySig:mean 	0.96482246191076
scalar Network.dyn_peer[216] 	lookupHopsSig:mean 	20.352941176471
scalar Network.dyn_peer[217] 	lookupTimeSig:mean 	2.1782608695652
scalar Network.dyn_peer[217] 	lookupStabilitySig:mean 	0.96688140782467
scalar Network.dyn_peer[217] 	lookupHopsSig:mean 	20.826086956522
scalar Network.dyn_peer[218] 	lookupTimeSig:mean 	3.26
scalar Network.dyn_peer[218] 	lookupStabilitySig:mean 	0.95841111887712
scalar Network.dyn_peer[218] 	lookupHopsSig:mean 	31.65
scalar Network.dyn_peer[219] 	lookupTimeSig:mean 	2.5846153846154
scalar Network.dyn_peer[219] 	lookupStabilitySig:mean 	0.95214935044686
scalar Network.dyn_peer[219] 	lookupHopsSig:mean 	24.923076923077
scalar Network.dyn_peer[220] 	lookupTimeSig:mean 	3.0275862068966
scalar Network.dyn_peer[220] 	lookupStabilitySig:mean 	0.97122559910801
scalar Network.dyn_peer[220] 	lookupHopsSig:mean 	29.310344827586
scalar Network.dyn_peer[221] 	lookupTimeSig:mean 	2.7
scalar Network.dyn_peer[221] 	lookupStabilitySig:mean 	0.95628129859041
scalar Network.dyn_peer[221] 	lookupHopsSig:mean 	26.055555555556
scalar Network.dyn_peer[222] 	lookupTimeSig:mean 	2
scalar Network.dyn_peer[222] 	lookupStabilitySig:mean 	0.95292971290361
scalar Network.dyn_peer[222] 	lookupHopsSig:mean 	19.076923076923
scalar Network.dyn_peer[223] 	lookupTimeSig:mean 	2.1545454545455
scalar Network.dyn_peer[223] 	lookupStabilitySig:mean 	0.94234181822024
scalar Network.dyn_peer[223] 	lookupHopsSig:mean 	20.636363636364
scalar Network.dyn_peer[224] 	lookupTimeSig:mean 	2.9333333333333
scalar Network.dyn_peer[224] 	lookupStabilitySig:mean 	0.96631219931878
scalar Network.dyn_peer[224] 	lookupHopsSig:mean 	28.4
scalar Network.dyn_peer[225] 	lookupTimeSig:mean 	2.6304347826087
scalar Network.dyn_peer[225] 	lookupStabilitySig:mean 	0.96665546810254
scalar Network.dyn_peer[225] 	lookupHopsSig:mean 	25.347826086957
scalar Network.dyn_peer[226] 	lookupTimeSig:mean 	2.7090909090909
scalar Network.dyn_peer[226] 	lookupStabilitySig:mean 	0.94028585907918
scalar Network.dyn_peer[226] 	lookupHopsSig:mean 	26.181818181818
scalar Network.dyn_peer[227] 	lookupTimeSig:mean 	2.7263157894737
scalar Network.dyn_peer[227] 	lookupStabilitySig:mean 	0.96189547256616
scalar Network.dyn_peer[227] 	lookupHopsSig:mean 	26.315789473684
scalar Network.dyn_peer[228] 	lookupTimeSig:mean 	2.575
scalar Network.dyn_peer[228] 	lookupStabilitySig:mean 	0.95042898367683
scalar Network.dyn_peer[228] 	lookupHopsSig:mean 	24.8125
scalar Network.dyn_peer[229] 	lookupTimeSig:mean 	1.75
scalar Network.dyn_peer[229] 	lookupStabilitySig:mean 	0.96083894636831
scalar Network.dyn_peer[229] 	lookupHopsSig:mean 	16.5625
scalar Network.dyn_peer[230] 	lookupTimeSig:mean 	2.5125
scalar Network.dyn_peer[230] 	lookupStabilitySig:mean 	0.94953176320996
scalar Network.dyn_peer[230] 	lookupHopsSig:mean 	24.25
scalar Network.dyn_peer[231] 	lookupTimeSig:mean 	2.4285714285714
scalar Network.dyn_peer[231] 	lookupStabilitySig:mean 	0.93287020748747
scalar Network.dyn_peer[231] 	lookupHopsSig:mean 	23.428571428571
scalar Network.dyn_peer[232] 	lookupTimeSig:mean 	2.7421052631579
scalar Network.dyn_peer[232] 	lookupStabilitySig:mean 	0.96573661841256
scalar Network.dyn_peer[232] 	lookupHopsSig:mean 	26.473684210526
scalar Network.dyn_peer[233] 	lookupTimeSig:mean 	2.1777777777778
scalar Network.dyn_peer[233] 	lookupStabilitySig:mean 	0.96996598685574
scalar Network.dyn_peer[233] 	lookupHopsSig:mean 	20.833333333333
scalar Network.dyn_peer[234] 	lookupTimeSig:mean 	2.6454545454545
scalar Network.dyn_peer[234] 	lookupStabilitySig:mean 	0.95117898156274
scalar Network.dyn_peer[234] 	lookupHopsSig:mean 	25.545454545455
scalar Network.dyn_peer[235] 	lookupTimeSig:mean 	2.5058823529412
scalar Network.dyn_peer[235] 	lookupStabilitySig:mean 	0.9550096730099
scalar Network.dyn_peer[235] 	lookupHopsSig:mean 	24.117647058824
scalar Network.dyn_peer[236] 	lookupTimeSig:mean 	2.1727272727273
scalar Network.dyn_peer[236] 	lookupStabilitySig:mean 	0.94686475466006
scalar Network.dyn_peer[236] 	lookupHopsSig:mean 	20.818181818182
scalar Network.dyn_peer[237] 	lookupTimeSig:mean 	2.9857142857143
scalar Network.dyn_peer[237] 	lookupStabilitySig:mean 	0.94653081634481
scalar Network.dyn_peer[237] 	lookupHopsSig:mean 	28.928571428571
scalar Network.dyn_peer[238] 	lookupTimeSig:mean 	1.5384615384615
scalar Network.dyn_peer[238] 	lookupStabilitySig:mean 	0.96377704833419
scalar Network.dyn_peer[238] 	lookupHopsSig:mean 	14.461538461538
scalar Network.dyn_peer[239] 	lookupTimeSig:mean 	2.025
scalar Network.dyn_peer[239] 	lookupStabilitySig:mean 	0.94766298780451
scalar Network.dyn_peer[239] 	lookupHopsSig:mean 	19.375
scalar Network.dyn_peer[240] 	lookupTimeSig:mean 	2.2714285714286
scalar Network.dyn_peer[240] 	lookupStabilitySig:mean 	0.9740825564534
scalar Network.dyn_peer[240] 	lookupHopsSig:mean 	21.75
scalar Network.dyn_peer[241] 	lookupTimeSig:mean 	2.8133333333333
scalar Network.dyn_peer[241] 	lookupStabilitySig:mean 	0.95599752746833
scalar Network.dyn_peer[241] 	lookupHopsSig:mean 	27.2
scalar Network.dyn_peer[242] 	lookupTimeSig:mean 	2.3052631578947
scalar Network.dyn_peer[242] 	lookupStabilitySig:mean 	0.9629842076806
scalar Network.dyn_peer[242] 	lookupHopsSig:mean 	22.105263157895
scalar Network.dyn_peer[243] 	lookupTimeSig:mean 	2.0333333333333
scalar Network.dyn_peer[243] 	lookupStabilitySig:mean 	0.94753478288961
scalar Network.dyn_peer[243] 	lookupHopsSig:mean 	19.416666666667
scalar Network.dyn_peer[244] 	lookupTimeSig:mean 	2.3416666666667
scalar Network.dyn_peer[244] 	lookupStabilitySig:mean 	0.95029459610426
scalar Network.dyn_peer[244] 	lookupHopsSig:mean 	22.5
scalar Network.dyn_peer[245] 	lookupTimeSig:mean 	1.804347826087
scalar Network.dyn_peer[245] 	lookupStabilitySig:mean 	0.96977578843539
scalar Network.dyn_peer[245] 	lookupHopsSig:mean 	17.086956521739
scalar Network.dyn_peer[246] 	lookupTimeSig:mean 	2.0809523809524
scalar Network.dyn_peer[246] 	lookupStabilitySig:mean 	0.96905843877245
scalar Network.dyn_peer[246] 	lookupHopsSig:mean 	19.857142857143
scalar Network.dyn_peer[247] 	lookupTimeSig:mean 	2.5333333333333
scalar Network.dyn_peer[247] 	lookupStabilitySig:mean 	0.96426116430112
scalar Network.dyn_peer[247] 	lookupHopsSig:mean 	24.380952380952
scalar Network.dyn_peer[248] 	lookupTimeSig:mean 	1.4833333333333
scalar Network.dyn_peer[248] 	lookupStabilitySig:mean 	0.96904131188057
scalar Network.dyn_peer[248] 	lookupHopsSig:mean 	13.888888888889
scalar Network.dyn_peer[249] 	lookupTimeSig:mean 	3.2833333333333
scalar Network.dyn_peer[249] 	lookupStabilitySig:mean 	0.92169855348766
scalar Network.dyn_peer[249] 	lookupHopsSig:mean 	32
scalar Network.dyn_peer[250] 	lookupTimeSig:mean 	1.8954545454545
scalar Network.dyn_peer[250] 	lookupStabilitySig:mean 	0.96725414101754
scalar Network.dyn_peer[250] 	lookupHopsSig:mean 	18
scalar Network.dyn_peer[251] 	lookupTimeSig:mean 	2.775
scalar Network.dyn_peer[251] 	lookupStabilitySig:mean 	0.94645143843566
scalar Network.dyn_peer[251] 	lookupHopsSig:mean 	26.833333333333
scalar Network.dyn_peer[252] 	lookupTimeSig:mean 	2.7157894736842
scalar Network.dyn_peer[252] 	lookupStabilitySig:mean 	0.95956797559599
scalar Network.dyn_peer[252] 	lookupHopsSig:mean 	26.210526315789
scalar Network.dyn_peer[253] 	lookupTimeSig:mean 	2.3857142857143
scalar Network.dyn_peer[253] 	lookupStabilitySig:mean 	0.96283980550444
scalar Network.dyn_peer[253] 	lookupHopsSig:mean 	22.904761904762
scalar Network.dyn_peer[254] 	lookupTimeSig:mean 	2.325
scalar Network.dyn_peer[254] 	lookupStabilitySig:mean 	0.97338204063126
scalar Network.dyn_peer[254] 	lookupHopsSig:mean 	22.3
scalar Network.dyn_peer[255] 	lookupTimeSig:mean 	2.5529411764706
scalar Network.dyn_peer[255] 	lookupStabilitySig:mean 	0.96130878667292
scalar Network.dyn_peer[255] 	lookupHopsSig:mean 	24.588235294118
scalar Network.dyn_peer[256] 	lookupTimeSig:mean 	2.4
scalar Network.dyn_peer[256] 	lookupStabilitySig:mean 	0.95014178333804
scalar Network.dyn_peer[256] 	lookupHopsSig:mean 	23.083333333333
scalar Network.dyn_peer[257] 	lookupTimeSig:mean 	3.41875
scalar Network.dyn_peer[257] 	lookupStabilitySig:mean 	0.95782685634913
scalar Network.dyn_peer[257] 	lookupHopsSig:mean 	33.25
scalar Network.dyn_peer[258] 	lookupTimeSig:mean 	2.5692307692308
scalar Network.dyn_peer[258] 	lookupStabilitySig:mean 	0.95195399224758
scalar Network.dyn_peer[258] 	lookupHopsSig:mean 	24.769230769231
scalar Network.dyn_peer[259] 	lookupTimeSig:mean 	2.935
scalar Network.dyn_peer[259] 	lookupStabilitySig:mean 	0.97112438906915
scalar Network.dyn_peer[259] 	lookupHopsSig:mean 	28.4
scalar Network.dyn_peer[260] 	lookupTimeSig:mean 	2.24
scalar Network.dyn_peer[260] 	lookupStabilitySig:mean 	0.96943774904745
scalar Network.dyn_peer[260] 	lookupHopsSig:mean 	21.466666666667
scalar Network.dyn_peer[261] 	lookupTimeSig:mean 	2.9263157894737
scalar Network.dyn_peer[261] 	lookupStabilitySig:mean 	0.95814818709991
scalar Network.dyn_peer[261] 	lookupHopsSig:mean 	28.315789473684
scalar Network.dyn_peer[262] 	lookupTimeSig:mean 	2.5863636363636
scalar Network.dyn_peer[262] 	lookupStabilitySig:mean 	0.96518296915085
scalar Network.dyn_peer[262] 	lookupHopsSig:mean 	24.909090909091
scalar Network.dyn_peer[263] 	lookupTimeSig:mean 	1.5
scalar Network.dyn_peer[263] 	lookupStabilitySig:mean 	0.95695252503412
scalar Network.dyn_peer[263] 	lookupHopsSig:mean 	14.076923076923
scalar Network.dyn_peer[264] 	lookupTimeSig:mean 	2.85
scalar Network.dyn_peer[264] 	lookupStabilitySig:mean 	0.92501258741443
scalar Network.dyn_peer[264] 	lookupHopsSig:mean 	27.666666666667
scalar Network.dyn_peer[265] 	lookupTimeSig:mean 	3.2809523809524
scalar Network.dyn_peer[265] 	lookupStabilitySig:mean 	0.96353886826407
scalar Network.dyn_peer[265] 	lookupHopsSig:mean 	31.857142857143
scalar Network.dyn_peer[266] 	lookupTimeSig:mean 	2.5695652173913
scalar Network.dyn_peer[266] 	lookupStabilitySig:mean 	0.96654839447254
scalar Network.dyn_peer[266] 	lookupHopsSig:mean 	24.739130434783
scalar Network.dyn_peer[267] 	lookupTimeSig:mean 	2.7777777777778
scalar Network.dyn_peer[267] 	lookupStabilitySig:mean 	0.96270589837998
scalar Network.dyn_peer[267] 	lookupHopsSig:mean 	26.833333333333
scalar Network.dyn_peer[268] 	lookupTimeSig:mean 	2.7090909090909
scalar Network.dyn_peer[268] 	lookupStabilitySig:mean 	0.95174970503219
scalar Network.dyn_peer[268] 	lookupHopsSig:mean 	26.181818181818
scalar Network.dyn_peer[269] 	lookupTimeSig:mean 	2.1347826086957
scalar Network.dyn_peer[269] 	lookupStabilitySig:mean 	0.97049680152786
scalar Network.dyn_peer[269] 	lookupHopsSig:mean 	20.391304347826
scalar Network.dyn_peer[270] 	lookupTimeSig:mean 	2.05
scalar Network.dyn_peer[270] 	lookupStabilitySig:mean 	0.96201693816693
scalar Network.dyn_peer[270] 	lookupHopsSig:mean 	19.5625
scalar Network.dyn_peer[271] 	lookupTimeSig:mean 	1.8642857142857
scalar Network.dyn_peer[271] 	lookupStabilitySig:mean 	0.96195549102101
scalar Network.dyn_peer[271] 	lookupHopsSig:mean 	17.714285714286
scalar Network.dyn_peer[272] 	lookupTimeSig:mean 	3.2615384615385
scalar Network.dyn_peer[272] 	lookupStabilitySig:mean 	0.95060216176968
scalar Network.dyn_peer[272] 	lookupHopsSig:mean 	31.692307692308
scalar Network.dyn_peer[273] 	lookupTimeSig:mean 	2.6588235294118
scalar Network.dyn_peer[273] 	lookupStabilitySig:mean 	0.96260009432102
scalar Network.dyn_peer[273] 	lookupHopsSig:mean 	25.647058823529
scalar Network.dyn_peer[274] 	lookupTimeSig:mean 	2.0375
scalar Network.dyn_peer[274] 	lookupStabilitySig:mean 	0.94613480230328
scalar Network.dyn_peer[274] 	lookupHopsSig:mean 	19.5
scalar Network.dyn_peer[275] 	lookupTimeSig:mean 	2.8266666666667
scalar Network.dyn_peer[275] 	lookupStabilitySig:mean 	0.95493729257335
scalar Network.dyn_peer[275] 	lookupHopsSig:mean 	27.333333333333
scalar Network.dyn_peer[276] 	lookupTimeSig:mean 	1.5142857142857
scalar Network.dyn_peer[276] 	lookupStabilitySig:mean 	0.94670793154676
scalar Network.dyn_peer[276] 	lookupHopsSig:mean 	14.285714285714
scalar Network.dyn_peer[277] 	lookupTimeSig:mean 	3.0142857142857
scalar Network.dyn_peer[277] 	lookupStabilitySig:mean 	0.94859993437837
scalar Network.dyn_peer[277] 	lookupHopsSig:mean 	29.214285714286
scalar Network.dyn_peer[278] 	lookupTimeSig:mean 	2.7
scalar Network.dyn_peer[278] 	lookupStabilitySig:mean 	0.95786271724277
scalar Network.dyn_peer[278] 	lookupHopsSig:mean 	26.076923076923
scalar Network.dyn_peer[279] 	lookupTimeSig:mean 	1.925
scalar Network.dyn_peer[279] 	lookupStabilitySig:mean 	0.94981331774034
scalar Network.dyn_peer[279] 	lookupHopsSig:mean 	18.333333333333
scalar Network.dyn_peer[280] 	lookupTimeSig:mean 	2.4375
scalar Network.dyn_peer[280] 	lookupStabilitySig:mean 	0.95095618418418
scalar Network.dyn_peer[280] 	lookupHopsSig:mean 	23.5
scalar Network.dyn_peer[281] 	lookupTimeSig:mean 	2.4555555555556
scalar Network.dyn_peer[281] 	lookupStabilitySig:mean 	0.96323285483393
scalar Network.dyn_peer[281] 	lookupHopsSig:mean 	23.611111111111
scalar Network.dyn_peer[282] 	lookupTimeSig:mean 	2.3857142857143
scalar Network.dyn_peer[282] 	lookupStabilitySig:mean 	0.96014258679601
scalar Network.dyn_peer[282] 	lookupHopsSig:mean 	22.928571428571
scalar Network.dyn_peer[283] 	lookupTimeSig:mean 	2.625
scalar Network.dyn_peer[283] 	lookupStabilitySig:mean 	0.95913778006798
scalar Network.dyn_peer[283] 	lookupHopsSig:mean 	25.3125
scalar Network.dyn_peer[284] 	lookupTimeSig:mean 	2.8375
scalar Network.dyn_peer[284] 	lookupStabilitySig:mean 	0.9671582939045
scalar Network.dyn_peer[284] 	lookupHopsSig:mean 	27.4375
scalar Network.dyn_peer[285] 	lookupTimeSig:mean 	2.9533333333333
scalar Network.dyn_peer[285] 	lookupStabilitySig:mean 	0.96151934914912
scalar Network.dyn_peer[285] 	lookupHopsSig:mean 	28.6
scalar Network.dyn_peer[286] 	lookupTimeSig:mean 	2.3178571428571
scalar Network.dyn_peer[286] 	lookupStabilitySig:mean 	0.97443714051873
scalar Network.dyn_peer[286] 	lookupHopsSig:mean 	22.214285714286
scalar Network.dyn_peer[287] 	lookupTimeSig:mean 	2.05
scalar Network.dyn_peer[287] 	lookupStabilitySig:mean 	0.9553093642074
scalar Network.dyn_peer[287] 	lookupHopsSig:mean 	19.583333333333
scalar Network.dyn_peer[288] 	lookupTimeSig:mean 	2.48125
scalar Network.dyn_peer[288] 	lookupStabilitySig:mean 	0.96545365090424
scalar Network.dyn_peer[288] 	lookupHopsSig:mean 	23.875
scalar Network.dyn_peer[289] 	lookupTimeSig:mean 	3.7545454545455
scalar Network.dyn_peer[289] 	lookupStabilitySig:mean 	0.96598082901487
scalar Network.dyn_peer[289] 	lookupHopsSig:mean 	36.636363636364
scalar Network.dyn_peer[290] 	lookupTimeSig:mean 	2.7521739130435
scalar Network.dyn_peer[290] 	lookupStabilitySig:mean 	0.96948162813509
scalar Network.dyn_peer[290] 	lookupHopsSig:mean 	26.565217391304
scalar Network.dyn_peer[291] 	lookupTimeSig:mean 	2.2466666666667
scalar Network.dyn_peer[291] 	lookupStabilitySig:mean 	0.96155749472479
scalar Network.dyn_peer[291] 	lookupHopsSig:mean 	21.533333333333
scalar Network.dyn_peer[292] 	lookupTimeSig:mean 	2.5
scalar Network.dyn_peer[292] 	lookupStabilitySig:mean 	0.95501383347437
scalar Network.dyn_peer[292] 	lookupHopsSig:mean 	24.066666666667
scalar Network.dyn_peer[293] 	lookupTimeSig:mean 	2.3666666666667
scalar Network.dyn_peer[293] 	lookupStabilitySig:mean 	0.94919196884924
scalar Network.dyn_peer[293] 	lookupHopsSig:mean 	22.75
scalar Network.dyn_peer[294] 	lookupTimeSig:mean 	2.32
scalar Network.dyn_peer[294] 	lookupStabilitySig:mean 	0.90651205852628
scalar Network.dyn_peer[294] 	lookupHopsSig:mean 	22.4
scalar Network.dyn_peer[295] 	lookupTimeSig:mean 	2.2611111111111
scalar Network.dyn_peer[295] 	lookupStabilitySig:mean 	0.96392907212592
scalar Network.dyn_peer[295] 	lookupHopsSig:mean 	21.666666666667
scalar Network.dyn_peer[296] 	lookupTimeSig:mean 	1.4714285714286
scalar Network.dyn_peer[296] 	lookupStabilitySig:mean 	0.96944631558533
scalar Network.dyn_peer[296] 	lookupHopsSig:mean 	13.761904761905
scalar Network.dyn_peer[297] 	lookupTimeSig:mean 	3.5769230769231
scalar Network.dyn_peer[297] 	lookupStabilitySig:mean 	0.95097354656229
scalar Network.dyn_peer[297] 	lookupHopsSig:mean 	34.846153846154
scalar Network.dyn_peer[298] 	lookupTimeSig:mean 	2.2583333333333
scalar Network.dyn_peer[298] 	lookupStabilitySig:mean 	0.95651352013617
scalar Network.dyn_peer[298] 	lookupHopsSig:mean 	21.666666666667
scalar Network.dyn_peer[299] 	lookupTimeSig:mean 	2.55
scalar Network.dyn_peer[299] 	lookupStabilitySig:mean 	0.95562146098486
scalar Network.dyn_peer[299] 	lookupHopsSig:mean 	24.571428571429
scalar Network.dyn_peer[300] 	lookupTimeSig:mean 	3.12
scalar Network.dyn_peer[300] 	lookupStabilitySig:mean 	0.95671493300858
scalar Network.dyn_peer[300] 	lookupHopsSig:mean 	30.266666666667
scalar Network.dyn_peer[301] 	lookupTimeSig:mean 	2.53
scalar Network.dyn_peer[301] 	lookupStabilitySig:mean 	0.94812269154936
scalar Network.dyn_peer[301] 	lookupHopsSig:mean 	24.4
scalar Network.dyn_peer[302] 	lookupTimeSig:mean 	2.86
scalar Network.dyn_peer[302] 	lookupStabilitySig:mean 	0.96064641410485
scalar Network.dyn_peer[302] 	lookupHopsSig:mean 	27.7
scalar Network.dyn_peer[303] 	lookupTimeSig:mean 	2.7545454545455
scalar Network.dyn_peer[303] 	lookupStabilitySig:mean 	0.95816831790249
scalar Network.dyn_peer[303] 	lookupHopsSig:mean 	26.636363636364
scalar Network.dyn_peer[304] 	lookupTimeSig:mean 	1.7333333333333
scalar Network.dyn_peer[304] 	lookupStabilitySig:mean 	0.95591501402669
scalar Network.dyn_peer[304] 	lookupHopsSig:mean 	16.416666666667
scalar Network.dyn_peer[305] 	lookupTimeSig:mean 	3.35
scalar Network.dyn_peer[305] 	lookupStabilitySig:mean 	0.95745546912907
scalar Network.dyn_peer[305] 	lookupHopsSig:mean 	32.571428571429
scalar Network.dyn_peer[306] 	lookupTimeSig:mean 	2.6058823529412
scalar Network.dyn_peer[306] 	lookupStabilitySig:mean 	0.9622952454066
scalar Network.dyn_peer[306] 	lookupHopsSig:mean 	25.117647058824
scalar Network.dyn_peer[307] 	lookupTimeSig:mean 	2.8347826086957
scalar Network.dyn_peer[307] 	lookupStabilitySig:mean 	0.97027533604642
scalar Network.dyn_peer[307] 	lookupHopsSig:mean 	27.391304347826
scalar Network.dyn_peer[308] 	lookupTimeSig:mean 	1.847619047619
scalar Network.dyn_peer[308] 	lookupStabilitySig:mean 	0.97012661771095
scalar Network.dyn_peer[308] 	lookupHopsSig:mean 	17.52380952381
scalar Network.dyn_peer[309] 	lookupTimeSig:mean 	2.1
scalar Network.dyn_peer[309] 	lookupStabilitySig:mean 	0.96139318530913
scalar Network.dyn_peer[309] 	lookupHopsSig:mean 	20.125
scalar Network.dyn_peer[310] 	lookupTimeSig:mean 	2.035
scalar Network.dyn_peer[310] 	lookupStabilitySig:mean 	0.96768074342981
scalar Network.dyn_peer[310] 	lookupHopsSig:mean 	19.4
scalar Network.dyn_peer[311] 	lookupTimeSig:mean 	2.1678571428571
scalar Network.dyn_peer[311] 	lookupStabilitySig:mean 	0.97598163850541
scalar Network.dyn_peer[311] 	lookupHopsSig:mean 	20.714285714286
scalar Network.dyn_peer[312] 	lookupTimeSig:mean 	2.7142857142857
scalar Network.dyn_peer[312] 	lookupStabilitySig:mean 	0.95662685225917
scalar Network.dyn_peer[312] 	lookupHopsSig:mean 	26.214285714286
scalar Network.dyn_peer[313] 	lookupTimeSig:mean 	3.52
scalar Network.dyn_peer[313] 	lookupStabilitySig:mean 	0.95362785630859
scalar Network.dyn_peer[313] 	lookupHopsSig:mean 	34.3
scalar Network.dyn_peer[314] 	lookupTimeSig:mean 	3.6833333333333
scalar Network.dyn_peer[314] 	lookupStabilitySig:mean 	0.95507308099574
scalar Network.dyn_peer[314] 	lookupHopsSig:mean 	35.916666666667
scalar Network.dyn_peer[315] 	lookupTimeSig:mean 	2.6727272727273
scalar Network.dyn_peer[315] 	lookupStabilitySig:mean 	0.9751451755186
scalar Network.dyn_peer[315] 	lookupHopsSig:mean 	25.772727272727
scalar Network.dyn_peer[316] 	lookupTimeSig:mean 	3.0411764705882
scalar Network.dyn_peer[316] 	lookupStabilitySig:mean 	0.96350033353905
scalar Network.dyn_peer[316] 	lookupHopsSig:mean 	29.470588235294
scalar Network.dyn_peer[317] 	lookupTimeSig:mean 	2.5925925925926
scalar Network.dyn_peer[317] 	lookupStabilitySig:mean 	0.97806735699824
scalar Network.dyn_peer[317] 	lookupHopsSig:mean 	24.962962962963
scalar Network.dyn_peer[318] 	lookupTimeSig:mean 	2.4333333333333
scalar Network.dyn_peer[318] 	lookupStabilitySig:mean 	0.96591639891267
scalar Network.dyn_peer[318] 	lookupHopsSig:mean 	23.5
scalar Network.dyn_peer[319] 	lookupTimeSig:mean 	2.075
scalar Network.dyn_peer[319] 	lookupStabilitySig:mean 	0.96891592460452
scalar Network.dyn_peer[319] 	lookupHopsSig:mean 	19.8
scalar Network.dyn_peer[320] 	lookupTimeSig:mean 	1.5
scalar Network.dyn_peer[320] 	lookupStabilitySig:mean 	0.95383934109122
scalar Network.dyn_peer[320] 	lookupHopsSig:mean 	14.125
scalar Network.dyn_peer[321] 	lookupTimeSig:mean 	2.0416666666667
scalar Network.dyn_peer[321] 	lookupStabilitySig:mean 	0.95728826645063
scalar Network.dyn_peer[321] 	lookupHopsSig:mean 	19.5
scalar Network.dyn_peer[322] 	lookupTimeSig:mean 	2.53
scalar Network.dyn_peer[322] 	lookupStabilitySig:mean 	0.94185382407159
scalar Network.dyn_peer[322] 	lookupHopsSig:mean 	24.4
scalar Network.dyn_peer[323] 	lookupTimeSig:mean 	2.355
scalar Network.dyn_peer[323] 	lookupStabilitySig:mean 	0.96602995705325
scalar Network.dyn_peer[323] 	lookupHopsSig:mean 	22.6
scalar Network.dyn_peer[324] 	lookupTimeSig:mean 	2.3818181818182
scalar Network.dyn_peer[324] 	lookupStabilitySig:mean 	0.94604759891941
scalar Network.dyn_peer[324] 	lookupHopsSig:mean 	22.909090909091
scalar Network.dyn_peer[325] 	lookupTimeSig:mean 	2.86875
scalar Network.dyn_peer[325] 	lookupStabilitySig:mean 	0.96405478799716
scalar Network.dyn_peer[325] 	lookupHopsSig:mean 	27.75
scalar Network.dyn_peer[326] 	lookupTimeSig:mean 	2.5230769230769
scalar Network.dyn_peer[326] 	lookupStabilitySig:mean 	0.95700950352833
scalar Network.dyn_peer[326] 	lookupHopsSig:mean 	24.307692307692
scalar Network.dyn_peer[327] 	lookupTimeSig:mean 	2.8705882352941
scalar Network.dyn_peer[327] 	lookupStabilitySig:mean 	0.9644432941123
scalar Network.dyn_peer[327] 	lookupHopsSig:mean 	27.764705882353
scalar Network.dyn_peer[328] 	lookupTimeSig:mean 	2.0277777777778
scalar Network.dyn_peer[328] 	lookupStabilitySig:mean 	0.97332544606696
scalar Network.dyn_peer[328] 	lookupHopsSig:mean 	19.333333333333
scalar Network.dyn_peer[329] 	lookupTimeSig:mean 	1.6285714285714
scalar Network.dyn_peer[329] 	lookupStabilitySig:mean 	0.94300690532795
scalar Network.dyn_peer[329] 	lookupHopsSig:mean 	15.428571428571
scalar Network.dyn_peer[330] 	lookupTimeSig:mean 	2.9785714285714
scalar Network.dyn_peer[330] 	lookupStabilitySig:mean 	0.96330921431737
scalar Network.dyn_peer[330] 	lookupHopsSig:mean 	28.857142857143
scalar Network.dyn_peer[331] 	lookupTimeSig:mean 	3.4
scalar Network.dyn_peer[331] 	lookupStabilitySig:mean 	0.96031757963535
scalar Network.dyn_peer[331] 	lookupHopsSig:mean 	33.076923076923
scalar Network.dyn_peer[332] 	lookupTimeSig:mean 	2.4307692307692
scalar Network.dyn_peer[332] 	lookupStabilitySig:mean 	0.95476141113501
scalar Network.dyn_peer[332] 	lookupHopsSig:mean 	23.384615384615
scalar Network.dyn_peer[333] 	lookupTimeSig:mean 	1.6545454545455
scalar Network.dyn_peer[333] 	lookupStabilitySig:mean 	0.95317402153953
scalar Network.dyn_peer[333] 	lookupHopsSig:mean 	15.636363636364
scalar Network.dyn_peer[334] 	lookupTimeSig:mean 	3.09
scalar Network.dyn_peer[334] 	lookupStabilitySig:mean 	0.94975637278985
scalar Network.dyn_peer[334] 	lookupHopsSig:mean 	30
scalar Network.dyn_peer[335] 	lookupTimeSig:mean 	3.1533333333333
scalar Network.dyn_peer[335] 	lookupStabilitySig:mean 	0.9577546890825
scalar Network.dyn_peer[335] 	lookupHopsSig:mean 	30.6
scalar Network.dyn_peer[336] 	lookupTimeSig:mean 	2.3272727272727
scalar Network.dyn_peer[336] 	lookupStabilitySig:mean 	0.95388809786263
scalar Network.dyn_peer[336] 	lookupHopsSig:mean 	22.363636363636
scalar Network.dyn_peer[337] 	lookupTimeSig:mean 	1.575
scalar Network.dyn_peer[337] 	lookupStabilitySig:mean 	0.91558410180733
scalar Network.dyn_peer[337] 	lookupHopsSig:mean 	15
scalar Network.dyn_peer[338] 	lookupTimeSig:mean 	2.6428571428571
scalar Network.dyn_peer[338] 	lookupStabilitySig:mean 	0.95159665096019
scalar Network.dyn_peer[338] 	lookupHopsSig:mean 	25.571428571429
scalar Network.dyn_peer[339] 	lookupTimeSig:mean 	3.2105263157895
scalar Network.dyn_peer[339] 	lookupStabilitySig:mean 	0.97368150106386
scalar Network.dyn_peer[339] 	lookupHopsSig:mean 	31.157894736842
scalar Network.dyn_peer[340] 	lookupTimeSig:mean 	2.0833333333333
scalar Network.dyn_peer[340] 	lookupStabilitySig:mean 	0.94388916234796
scalar Network.dyn_peer[340] 	lookupHopsSig:mean 	20
scalar Network.dyn_peer[341] 	lookupTimeSig:mean 	1.96
scalar Network.dyn_peer[341] 	lookupStabilitySig:mean 	0.94263281682506
scalar Network.dyn_peer[341] 	lookupHopsSig:mean 	18.8
scalar Network.dyn_peer[342] 	lookupTimeSig:mean 	2.4833333333333
scalar Network.dyn_peer[342] 	lookupStabilitySig:mean 	0.96885910976885
scalar Network.dyn_peer[342] 	lookupHopsSig:mean 	23.888888888889
scalar Network.dyn_peer[343] 	lookupTimeSig:mean 	3.4090909090909
scalar Network.dyn_peer[343] 	lookupStabilitySig:mean 	0.95109838298099
scalar Network.dyn_peer[343] 	lookupHopsSig:mean 	33.181818181818
scalar Network.dyn_peer[344] 	lookupTimeSig:mean 	1.85
scalar Network.dyn_peer[344] 	lookupStabilitySig:mean 	0.97257578890739
scalar Network.dyn_peer[344] 	lookupHopsSig:mean 	17.545454545455
scalar Network.dyn_peer[345] 	lookupTimeSig:mean 	1.7
scalar Network.dyn_peer[345] 	lookupStabilitySig:mean 	0.96535355473558
scalar Network.dyn_peer[345] 	lookupHopsSig:mean 	16.111111111111
scalar Network.dyn_peer[346] 	lookupTimeSig:mean 	1.8764705882353
scalar Network.dyn_peer[346] 	lookupStabilitySig:mean 	0.96465765413664
scalar Network.dyn_peer[346] 	lookupHopsSig:mean 	17.823529411765
scalar Network.dyn_peer[347] 	lookupTimeSig:mean 	2.2384615384615
scalar Network.dyn_peer[347] 	lookupStabilitySig:mean 	0.95948676499896
scalar Network.dyn_peer[347] 	lookupHopsSig:mean 	21.461538461538
scalar Network.dyn_peer[348] 	lookupTimeSig:mean 	2.1894736842105
scalar Network.dyn_peer[348] 	lookupStabilitySig:mean 	0.96844368944508
scalar Network.dyn_peer[348] 	lookupHopsSig:mean 	20.947368421053
scalar Network.dyn_peer[349] 	lookupTimeSig:mean 	2.725
scalar Network.dyn_peer[349] 	lookupStabilitySig:mean 	0.96329847809102
scalar Network.dyn_peer[349] 	lookupHopsSig:mean 	26.3125
scalar Network.dyn_peer[350] 	lookupTimeSig:mean 	2.2388888888889
scalar Network.dyn_peer[350] 	lookupStabilitySig:mean 	0.98194472584873
scalar Network.dyn_peer[350] 	lookupHopsSig:mean 	21.444444444444
scalar Network.dyn_peer[351] 	lookupTimeSig:mean 	2.2238095238095
scalar Network.dyn_peer[351] 	lookupStabilitySig:mean 	0.97582811060628
scalar Network.dyn_peer[351] 	lookupHopsSig:mean 	21.285714285714
scalar Network.dyn_peer[352] 	lookupTimeSig:mean 	1.8619047619048
scalar Network.dyn_peer[352] 	lookupStabilitySig:mean 	0.97072424717841
scalar Network.dyn_peer[352] 	lookupHopsSig:mean 	17.666666666667
scalar Network.dyn_peer[353] 	lookupTimeSig:mean 	3.2428571428571
scalar Network.dyn_peer[353] 	lookupStabilitySig:mean 	0.96476376795077
scalar Network.dyn_peer[353] 	lookupHopsSig:mean 	31.5
scalar Network.dyn_peer[354] 	lookupTimeSig:mean 	2.0157894736842
scalar Network.dyn_peer[354] 	lookupStabilitySig:mean 	0.96967897162234
scalar Network.dyn_peer[354] 	lookupHopsSig:mean 	19.210526315789
scalar Network.dyn_peer[355] 	lookupTimeSig:mean 	2.5933333333333
scalar Network.dyn_peer[355] 	lookupStabilitySig:mean 	0.97348682275042
scalar Network.dyn_peer[355] 	lookupHopsSig:mean 	25
scalar Network.dyn_peer[356] 	lookupTimeSig:mean 	3.0571428571429
scalar Network.dyn_peer[356] 	lookupStabilitySig:mean 	0.9697736900832
scalar Network.dyn_peer[356] 	lookupHopsSig:mean 	29.619047619048
scalar Network.dyn_peer[357] 	lookupTimeSig:mean 	2.16
scalar Network.dyn_peer[357] 	lookupStabilitySig:mean 	0.96593410869439
scalar Network.dyn_peer[357] 	lookupHopsSig:mean 	20.666666666667
scalar Network.dyn_peer[358] 	lookupTimeSig:mean 	3.1857142857143
scalar Network.dyn_peer[358] 	lookupStabilitySig:mean 	0.9459034956526
scalar Network.dyn_peer[358] 	lookupHopsSig:mean 	31
scalar Network.dyn_peer[359] 	lookupTimeSig:mean 	2.1916666666667
scalar Network.dyn_peer[359] 	lookupStabilitySig:mean 	0.9564589880174
scalar Network.dyn_peer[359] 	lookupHopsSig:mean 	21
scalar Network.dyn_peer[360] 	lookupTimeSig:mean 	1.9722222222222
scalar Network.dyn_peer[360] 	lookupStabilitySig:mean 	0.96818624090196
scalar Network.dyn_peer[360] 	lookupHopsSig:mean 	18.777777777778
scalar Network.dyn_peer[361] 	lookupTimeSig:mean 	2.07
scalar Network.dyn_peer[361] 	lookupStabilitySig:mean 	0.96242206818424
scalar Network.dyn_peer[361] 	lookupHopsSig:mean 	19.8
scalar Network.dyn_peer[362] 	lookupTimeSig:mean 	1.8125
scalar Network.dyn_peer[362] 	lookupStabilitySig:mean 	0.95841941698745
scalar Network.dyn_peer[362] 	lookupHopsSig:mean 	17.25
scalar Network.dyn_peer[363] 	lookupTimeSig:mean 	2.92
scalar Network.dyn_peer[363] 	lookupStabilitySig:mean 	0.94727498702705
scalar Network.dyn_peer[363] 	lookupHopsSig:mean 	28.3
scalar Network.dyn_peer[364] 	lookupTimeSig:mean 	1.9333333333333
scalar Network.dyn_peer[364] 	lookupStabilitySig:mean 	0.97033551004198
scalar Network.dyn_peer[364] 	lookupHopsSig:mean 	18.444444444444
scalar Network.dyn_peer[365] 	lookupTimeSig:mean 	2.49
scalar Network.dyn_peer[365] 	lookupStabilitySig:mean 	0.95750173567794
scalar Network.dyn_peer[365] 	lookupHopsSig:mean 	24
scalar Network.dyn_peer[366] 	lookupTimeSig:mean 	3.5181818181818
scalar Network.dyn_peer[366] 	lookupStabilitySig:mean 	0.95382758763365
scalar Network.dyn_peer[366] 	lookupHopsSig:mean 	34.272727272727
scalar Network.dyn_peer[367] 	lookupTimeSig:mean 	3.8
scalar Network.dyn_peer[367] 	lookupStabilitySig:mean 	0.93945714598522
scalar Network.dyn_peer[367] 	lookupHopsSig:mean 	37.25
scalar Network.dyn_peer[368] 	lookupTimeSig:mean 	2.4555555555556
scalar Network.dyn_peer[368] 	lookupStabilitySig:mean 	0.95956044644117
scalar Network.dyn_peer[368] 	lookupHopsSig:mean 	23.666666666667
scalar Network.dyn_peer[369] 	lookupTimeSig:mean 	2.6666666666667
scalar Network.dyn_peer[369] 	lookupStabilitySig:mean 	0.97471505740261
scalar Network.dyn_peer[369] 	lookupHopsSig:mean 	25.703703703704
scalar Network.dyn_peer[370] 	lookupTimeSig:mean 	3.1
scalar Network.dyn_peer[370] 	lookupStabilitySig:mean 	0.9595738834635
scalar Network.dyn_peer[370] 	lookupHopsSig:mean 	30.071428571429
scalar Network.dyn_peer[371] 	lookupTimeSig:mean 	2.6230769230769
scalar Network.dyn_peer[371] 	lookupStabilitySig:mean 	0.96464247886951
scalar Network.dyn_peer[371] 	lookupHopsSig:mean 	25.307692307692
scalar Network.dyn_peer[372] 	lookupTimeSig:mean 	2.7545454545455
scalar Network.dyn_peer[372] 	lookupStabilitySig:mean 	0.95664392640306
scalar Network.dyn_peer[372] 	lookupHopsSig:mean 	26.636363636364
scalar Network.dyn_peer[373] 	lookupTimeSig:mean 	2.6333333333333
scalar Network.dyn_peer[373] 	lookupStabilitySig:mean 	0.95924830502675
scalar Network.dyn_peer[373] 	lookupHopsSig:mean 	25.416666666667
scalar Network.dyn_peer[374] 	lookupTimeSig:mean 	2.2375
scalar Network.dyn_peer[374] 	lookupStabilitySig:mean 	0.9736524063992
scalar Network.dyn_peer[374] 	lookupHopsSig:mean 	21.4375
scalar Network.dyn_peer[375] 	lookupTimeSig:mean 	3.6571428571429
scalar Network.dyn_peer[375] 	lookupStabilitySig:mean 	0.96101664139756
scalar Network.dyn_peer[375] 	lookupHopsSig:mean 	35.642857142857
scalar Network.dyn_peer[376] 	lookupTimeSig:mean 	2.6133333333333
scalar Network.dyn_peer[376] 	lookupStabilitySig:mean 	0.96411124312629
scalar Network.dyn_peer[376] 	lookupHopsSig:mean 	25.2
scalar Network.dyn_peer[377] 	lookupTimeSig:mean 	2.25
scalar Network.dyn_peer[377] 	lookupStabilitySig:mean 	0.96692798725174
scalar Network.dyn_peer[377] 	lookupHopsSig:mean 	21.583333333333
scalar Network.dyn_peer[378] 	lookupTimeSig:mean 	2.335
scalar Network.dyn_peer[378] 	lookupStabilitySig:mean 	0.97127003586502
scalar Network.dyn_peer[378] 	lookupHopsSig:mean 	22.4
scalar Network.dyn_peer[379] 	lookupTimeSig:mean 	3.1545454545455
scalar Network.dyn_peer[379] 	lookupStabilitySig:mean 	0.96235613101585
scalar Network.dyn_peer[379] 	lookupHopsSig:mean 	30.636363636364
scalar Network.dyn_peer[380] 	lookupTimeSig:mean 	1.95
scalar Network.dyn_peer[380] 	lookupStabilitySig:mean 	0.93791954716047
scalar Network.dyn_peer[380] 	lookupHopsSig:mean 	18.666666666667
scalar Network.dyn_peer[381] 	lookupTimeSig:mean 	2.9785714285714
scalar Network.dyn_peer[381] 	lookupStabilitySig:mean 	0.96636190438377
scalar Network.dyn_peer[381] 	lookupHopsSig:mean 	28.857142857143
scalar Network.dyn_peer[382] 	lookupTimeSig:mean 	2.7454545454545
scalar Network.dyn_peer[382] 	lookupStabilitySig:mean 	0.95839577388357
scalar Network.dyn_peer[382] 	lookupHopsSig:mean 	26.545454545455
scalar Network.dyn_peer[383] 	lookupTimeSig:mean 	1.33
scalar Network.dyn_peer[383] 	lookupStabilitySig:mean 	0.95808427836746
scalar Network.dyn_peer[383] 	lookupHopsSig:mean 	12.4
scalar Network.dyn_peer[384] 	lookupTimeSig:mean 	2.6
scalar Network.dyn_peer[384] 	lookupStabilitySig:mean 	0.96724081017809
scalar Network.dyn_peer[384] 	lookupHopsSig:mean 	25.071428571429
scalar Network.dyn_peer[385] 	lookupTimeSig:mean 	4.83
scalar Network.dyn_peer[385] 	lookupStabilitySig:mean 	0.95502969953232
scalar Network.dyn_peer[385] 	lookupHopsSig:mean 	47.4
scalar Network.dyn_peer[386] 	lookupTimeSig:mean 	2.7923076923077
scalar Network.dyn_peer[386] 	lookupStabilitySig:mean 	0.95755424601241
scalar Network.dyn_peer[386] 	lookupHopsSig:mean 	27
scalar Network.dyn_peer[387] 	lookupTimeSig:mean 	1.7333333333333
scalar Network.dyn_peer[387] 	lookupStabilitySig:mean 	0.96731683416551
scalar Network.dyn_peer[387] 	lookupHopsSig:mean 	16.444444444444
scalar Network.dyn_peer[388] 	lookupTimeSig:mean 	2.6
scalar Network.dyn_peer[388] 	lookupStabilitySig:mean 	0.97126170067879
scalar Network.dyn_peer[388] 	lookupHopsSig:mean 	25.045454545455
scalar Network.dyn_peer[389] 	lookupTimeSig:mean 	3.7933333333333
scalar Network.dyn_peer[389] 	lookupStabilitySig:mean 	0.96087431690345
scalar Network.dyn_peer[389] 	lookupHopsSig:mean 	37
scalar Network.dyn_peer[390] 	lookupTimeSig:mean 	3.0347826086957
scalar Network.dyn_peer[390] 	lookupStabilitySig:mean 	0.97390154288555
scalar Network.dyn_peer[390] 	lookupHopsSig:mean 	29.391304347826
scalar Network.dyn_peer[391] 	lookupTimeSig:mean 	2.5533333333333
scalar Network.dyn_peer[391] 	lookupStabilitySig:mean 	0.97371556418948
scalar Network.dyn_peer[391] 	lookupHopsSig:mean 	24.6
scalar Network.dyn_peer[392] 	lookupTimeSig:mean 	2.5111111111111
scalar Network.dyn_peer[392] 	lookupStabilitySig:mean 	0.97571586622184
scalar Network.dyn_peer[392] 	lookupHopsSig:mean 	24.166666666667
scalar Network.dyn_peer[393] 	lookupTimeSig:mean 	3.28
scalar Network.dyn_peer[393] 	lookupStabilitySig:mean 	0.95554874567315
scalar Network.dyn_peer[393] 	lookupHopsSig:mean 	31.9
scalar Network.dyn_peer[394] 	lookupTimeSig:mean 	2.7428571428571
scalar Network.dyn_peer[394] 	lookupStabilitySig:mean 	0.96306887076103
scalar Network.dyn_peer[394] 	lookupHopsSig:mean 	26.5
scalar Network.dyn_peer[395] 	lookupTimeSig:mean 	2.6923076923077
scalar Network.dyn_peer[395] 	lookupStabilitySig:mean 	0.96700380857174
scalar Network.dyn_peer[395] 	lookupHopsSig:mean 	26
scalar Network.dyn_peer[396] 	lookupTimeSig:mean 	2.6571428571429
scalar Network.dyn_peer[396] 	lookupStabilitySig:mean 	0.95670304733462
scalar Network.dyn_peer[396] 	lookupHopsSig:mean 	25.714285714286
scalar Network.dyn_peer[397] 	lookupTimeSig:mean 	2.4571428571429
scalar Network.dyn_peer[397] 	lookupStabilitySig:mean 	0.96469867189548
scalar Network.dyn_peer[397] 	lookupHopsSig:mean 	23.642857142857
scalar Network.dyn_peer[398] 	lookupTimeSig:mean 	2.2111111111111
scalar Network.dyn_peer[398] 	lookupStabilitySig:mean 	0.96102157535238
scalar Network.dyn_peer[398] 	lookupHopsSig:mean 	21.222222222222
scalar Network.dyn_peer[399] 	lookupTimeSig:mean 	3.1
scalar Network.dyn_peer[399] 	lookupStabilitySig:mean 	0.96611625080307
scalar Network.dyn_peer[399] 	lookupHopsSig:mean 	30.066666666667
scalar Network.dyn_peer[400] 	lookupTimeSig:mean 	2.15
scalar Network.dyn_peer[400] 	lookupStabilitySig:mean 	0.97405707505823
scalar Network.dyn_peer[400] 	lookupHopsSig:mean 	20.55
scalar Network.dyn_peer[401] 	lookupTimeSig:mean 	2.7388888888889
scalar Network.dyn_peer[401] 	lookupStabilitySig:mean 	0.96845420691857
scalar Network.dyn_peer[401] 	lookupHopsSig:mean 	26.444444444444
scalar Network.dyn_peer[402] 	lookupTimeSig:mean 	3.16
scalar Network.dyn_peer[402] 	lookupStabilitySig:mean 	0.96195272412151
scalar Network.dyn_peer[402] 	lookupHopsSig:mean 	30.666666666667
scalar Network.dyn_peer[403] 	lookupTimeSig:mean 	2.4461538461538
scalar Network.dyn_peer[403] 	lookupStabilitySig:mean 	0.95989646766191
scalar Network.dyn_peer[403] 	lookupHopsSig:mean 	23.538461538462
scalar Network.dyn_peer[404] 	lookupTimeSig:mean 	3.7285714285714
scalar Network.dyn_peer[404] 	lookupStabilitySig:mean 	0.95161055959761
scalar Network.dyn_peer[404] 	lookupHopsSig:mean 	36.428571428571
scalar Network.dyn_peer[405] 	lookupTimeSig:mean 	3.6846153846154
[...]
scalar Network.dyn_peer[9885] 	lookupTimeSig:mean 	-nan
scalar Network.dyn_peer[9885] 	lookupStabilitySig:mean 	-nan
scalar Network.dyn_peer[9885] 	lookupHopsSig:mean 	-nan
scalar Network.dyn_peer[9886] 	lookupTimeSig:mean 	-nan
scalar Network.dyn_peer[9886] 	lookupStabilitySig:mean 	-nan
scalar Network.dyn_peer[9886] 	lookupHopsSig:mean 	-nan
scalar Network.dyn_peer[9887] 	lookupTimeSig:mean 	-nan
scalar Network.dyn_peer[9887] 	lookupStabilitySig:mean 	-nan
scalar Network.dyn_peer[9887] 	lookupHopsSig:mean 	-nan
scalar Network.dyn_peer[9888] 	lookupTimeSig:mean 	-nan
scalar Network.dyn_peer[9888] 	lookupStabilitySig:mean 	-nan
scalar Network.dyn_peer[9888] 	lookupHopsSig:mean 	-nan
scalar Network.dyn_peer[9889] 	lookupTimeSig:mean 	-nan
scalar Network.dyn_peer[9889] 	lookupStabilitySig:mean 	-nan
scalar Network.dyn_peer[9889] 	lookupHopsSig:mean 	-nan
scalar Network.dyn_peer[9890] 	lookupTimeSig:mean 	-nan
scalar Network.dyn_peer[9890] 	lookupStabilitySig:mean 	-nan
scalar Network.dyn_peer[9890] 	lookupHopsSig:mean 	-nan
scalar Network.dyn_peer[9891] 	lookupTimeSig:mean 	-nan
scalar Network.dyn_peer[9891] 	lookupStabilitySig:mean 	-nan
scalar Network.dyn_peer[9891] 	lookupHopsSig:mean 	-nan
scalar Network.dyn_peer[9892] 	lookupTimeSig:mean 	-nan
scalar Network.dyn_peer[9892] 	lookupStabilitySig:mean 	-nan
scalar Network.dyn_peer[9892] 	lookupHopsSig:mean 	-nan
scalar Network.dyn_peer[9893] 	lookupTimeSig:mean 	-nan
scalar Network.dyn_peer[9893] 	lookupStabilitySig:mean 	-nan
scalar Network.dyn_peer[9893] 	lookupHopsSig:mean 	-nan
scalar Network.dyn_peer[9894] 	lookupTimeSig:mean 	-nan
scalar Network.dyn_peer[9894] 	lookupStabilitySig:mean 	-nan
scalar Network.dyn_peer[9894] 	lookupHopsSig:mean 	-nan
scalar Network.dyn_peer[9895] 	lookupTimeSig:mean 	-nan
scalar Network.dyn_peer[9895] 	lookupStabilitySig:mean 	-nan
scalar Network.dyn_peer[9895] 	lookupHopsSig:mean 	-nan
scalar Network.dyn_peer[9896] 	lookupTimeSig:mean 	-nan
scalar Network.dyn_peer[9896] 	lookupStabilitySig:mean 	-nan
scalar Network.dyn_peer[9896] 	lookupHopsSig:mean 	-nan
scalar Network.dyn_peer[9897] 	lookupTimeSig:mean 	-nan
scalar Network.dyn_peer[9897] 	lookupStabilitySig:mean 	-nan
scalar Network.dyn_peer[9897] 	lookupHopsSig:mean 	-nan
scalar Network.dyn_peer[9898] 	lookupTimeSig:mean 	-nan
scalar Network.dyn_peer[9898] 	lookupStabilitySig:mean 	-nan
scalar Network.dyn_peer[9898] 	lookupHopsSig:mean 	-nan
scalar Network.dyn_peer[9899] 	lookupTimeSig:mean 	-nan
scalar Network.dyn_peer[9899] 	lookupStabilitySig:mean 	-nan
scalar Network.dyn_peer[9899] 	lookupHopsSig:mean 	-nan
scalar Network.dyn_peer[9900] 	lookupTimeSig:mean 	-nan
scalar Network.dyn_peer[9900] 	lookupStabilitySig:mean 	-nan
scalar Network.dyn_peer[9900] 	lookupHopsSig:mean 	-nan
scalar Network.dyn_peer[9901] 	lookupTimeSig:mean 	-nan
scalar Network.dyn_peer[9901] 	lookupStabilitySig:mean 	-nan
scalar Network.dyn_peer[9901] 	lookupHopsSig:mean 	-nan
scalar Network.dyn_peer[9902] 	lookupTimeSig:mean 	-nan
scalar Network.dyn_peer[9902] 	lookupStabilitySig:mean 	-nan
scalar Network.dyn_peer[9902] 	lookupHopsSig:mean 	-nan
scalar Network.dyn_peer[9903] 	lookupTimeSig:mean 	-nan
scalar Network.dyn_peer[9903] 	lookupStabilitySig:mean 	-nan
scalar Network.dyn_peer[9903] 	lookupHopsSig:mean 	-nan
scalar Network.dyn_peer[9904] 	lookupTimeSig:mean 	-nan
scalar Network.dyn_peer[9904] 	lookupStabilitySig:mean 	-nan
scalar Network.dyn_peer[9904] 	lookupHopsSig:mean 	-nan
scalar Network.dyn_peer[9905] 	lookupTimeSig:mean 	-nan
scalar Network.dyn_peer[9905] 	lookupStabilitySig:mean 	-nan
scalar Network.dyn_peer[9905] 	lookupHopsSig:mean 	-nan
scalar Network.dyn_peer[9906] 	lookupTimeSig:mean 	-nan
scalar Network.dyn_peer[9906] 	lookupStabilitySig:mean 	-nan
scalar Network.dyn_peer[9906] 	lookupHopsSig:mean 	-nan
scalar Network.dyn_peer[9907] 	lookupTimeSig:mean 	-nan
scalar Network.dyn_peer[9907] 	lookupStabilitySig:mean 	-nan
scalar Network.dyn_peer[9907] 	lookupHopsSig:mean 	-nan
scalar Network.dyn_peer[9908] 	lookupTimeSig:mean 	-nan
scalar Network.dyn_peer[9908] 	lookupStabilitySig:mean 	-nan
scalar Network.dyn_peer[9908] 	lookupHopsSig:mean 	-nan
scalar Network.dyn_peer[9909] 	lookupTimeSig:mean 	-nan
scalar Network.dyn_peer[9909] 	lookupStabilitySig:mean 	-nan
scalar Network.dyn_peer[9909] 	lookupHopsSig:mean 	-nan
scalar Network.dyn_peer[9910] 	lookupTimeSig:mean 	-nan
scalar Network.dyn_peer[9910] 	lookupStabilitySig:mean 	-nan
scalar Network.dyn_peer[9910] 	lookupHopsSig:mean 	-nan
scalar Network.dyn_peer[9911] 	lookupTimeSig:mean 	-nan
scalar Network.dyn_peer[9911] 	lookupStabilitySig:mean 	-nan
scalar Network.dyn_peer[9911] 	lookupHopsSig:mean 	-nan
scalar Network.dyn_peer[9912] 	lookupTimeSig:mean 	-nan
scalar Network.dyn_peer[9912] 	lookupStabilitySig:mean 	-nan
scalar Network.dyn_peer[9912] 	lookupHopsSig:mean 	-nan
scalar Network.dyn_peer[9913] 	lookupTimeSig:mean 	-nan
scalar Network.dyn_peer[9913] 	lookupStabilitySig:mean 	-nan
scalar Network.dyn_peer[9913] 	lookupHopsSig:mean 	-nan
scalar Network.dyn_peer[9914] 	lookupTimeSig:mean 	-nan
scalar Network.dyn_peer[9914] 	lookupStabilitySig:mean 	-nan
scalar Network.dyn_peer[9914] 	lookupHopsSig:mean 	-nan
scalar Network.dyn_peer[9915] 	lookupTimeSig:mean 	-nan
scalar Network.dyn_peer[9915] 	lookupStabilitySig:mean 	-nan
scalar Network.dyn_peer[9915] 	lookupHopsSig:mean 	-nan
scalar Network.dyn_peer[9916] 	lookupTimeSig:mean 	-nan
scalar Network.dyn_peer[9916] 	lookupStabilitySig:mean 	-nan
scalar Network.dyn_peer[9916] 	lookupHopsSig:mean 	-nan
scalar Network.dyn_peer[9917] 	lookupTimeSig:mean 	-nan
scalar Network.dyn_peer[9917] 	lookupStabilitySig:mean 	-nan
scalar Network.dyn_peer[9917] 	lookupHopsSig:mean 	-nan
scalar Network.dyn_peer[9918] 	lookupTimeSig:mean 	-nan
scalar Network.dyn_peer[9918] 	lookupStabilitySig:mean 	-nan
scalar Network.dyn_peer[9918] 	lookupHopsSig:mean 	-nan
scalar Network.dyn_peer[9919] 	lookupTimeSig:mean 	-nan
scalar Network.dyn_peer[9919] 	lookupStabilitySig:mean 	-nan
scalar Network.dyn_peer[9919] 	lookupHopsSig:mean 	-nan
scalar Network.dyn_peer[9920] 	lookupTimeSig:mean 	-nan
scalar Network.dyn_peer[9920] 	lookupStabilitySig:mean 	-nan
scalar Network.dyn_peer[9920] 	lookupHopsSig:mean 	-nan
scalar Network.dyn_peer[9921] 	lookupTimeSig:mean 	-nan
scalar Network.dyn_peer[9921] 	lookupStabilitySig:mean 	-nan
scalar Network.dyn_peer[9921] 	lookupHopsSig:mean 	-nan
scalar Network.dyn_peer[9922] 	lookupTimeSig:mean 	-nan
scalar Network.dyn_peer[9922] 	lookupStabilitySig:mean 	-nan
scalar Network.dyn_peer[9922] 	lookupHopsSig:mean 	-nan
scalar Network.dyn_peer[9923] 	lookupTimeSig:mean 	-nan
scalar Network.dyn_peer[9923] 	lookupStabilitySig:mean 	-nan
scalar Network.dyn_peer[9923] 	lookupHopsSig:mean 	-nan
scalar Network.dyn_peer[9924] 	lookupTimeSig:mean 	-nan
scalar Network.dyn_peer[9924] 	lookupStabilitySig:mean 	-nan
scalar Network.dyn_peer[9924] 	lookupHopsSig:mean 	-nan
scalar Network.dyn_peer[9925] 	lookupTimeSig:mean 	-nan
scalar Network.dyn_peer[9925] 	lookupStabilitySig:mean 	-nan
scalar Network.dyn_peer[9925] 	lookupHopsSig:mean 	-nan
scalar Network.dyn_peer[9926] 	lookupTimeSig:mean 	-nan
scalar Network.dyn_peer[9926] 	lookupStabilitySig:mean 	-nan
scalar Network.dyn_peer[9926] 	lookupHopsSig:mean 	-nan
scalar Network.dyn_peer[9927] 	lookupTimeSig:mean 	-nan
scalar Network.dyn_peer[9927] 	lookupStabilitySig:mean 	-nan
scalar Network.dyn_peer[9927] 	lookupHopsSig:mean 	-nan
scalar Network.dyn_peer[9928] 	lookupTimeSig:mean 	-nan
scalar Network.dyn_peer[9928] 	lookupStabilitySig:mean 	-nan
scalar Network.dyn_peer[9928] 	lookupHopsSig:mean 	-nan
scalar Network.dyn_peer[9929] 	lookupTimeSig:mean 	-nan
scalar Network.dyn_peer[9929] 	lookupStabilitySig:mean 	-nan
scalar Network.dyn_peer[9929] 	lookupHopsSig:mean 	-nan
scalar Network.dyn_peer[9930] 	lookupTimeSig:mean 	-nan
scalar Network.dyn_peer[9930] 	lookupStabilitySig:mean 	-nan
scalar Network.dyn_peer[9930] 	lookupHopsSig:mean 	-nan
scalar Network.dyn_peer[9931] 	lookupTimeSig:mean 	-nan
scalar Network.dyn_peer[9931] 	lookupStabilitySig:mean 	-nan
scalar Network.dyn_peer[9931] 	lookupHopsSig:mean 	-nan
scalar Network.dyn_peer[9932] 	lookupTimeSig:mean 	-nan
scalar Network.dyn_peer[9932] 	lookupStabilitySig:mean 	-nan
scalar Network.dyn_peer[9932] 	lookupHopsSig:mean 	-nan
scalar Network.dyn_peer[9933] 	lookupTimeSig:mean 	-nan
scalar Network.dyn_peer[9933] 	lookupStabilitySig:mean 	-nan
scalar Network.dyn_peer[9933] 	lookupHopsSig:mean 	-nan
scalar Network.dyn_peer[9934] 	lookupTimeSig:mean 	-nan
scalar Network.dyn_peer[9934] 	lookupStabilitySig:mean 	-nan
scalar Network.dyn_peer[9934] 	lookupHopsSig:mean 	-nan
scalar Network.dyn_peer[9935] 	lookupTimeSig:mean 	-nan
scalar Network.dyn_peer[9935] 	lookupStabilitySig:mean 	-nan
scalar Network.dyn_peer[9935] 	lookupHopsSig:mean 	-nan
scalar Network.dyn_peer[9936] 	lookupTimeSig:mean 	-nan
scalar Network.dyn_peer[9936] 	lookupStabilitySig:mean 	-nan
scalar Network.dyn_peer[9936] 	lookupHopsSig:mean 	-nan
scalar Network.dyn_peer[9937] 	lookupTimeSig:mean 	-nan
scalar Network.dyn_peer[9937] 	lookupStabilitySig:mean 	-nan
scalar Network.dyn_peer[9937] 	lookupHopsSig:mean 	-nan
scalar Network.dyn_peer[9938] 	lookupTimeSig:mean 	-nan
scalar Network.dyn_peer[9938] 	lookupStabilitySig:mean 	-nan
scalar Network.dyn_peer[9938] 	lookupHopsSig:mean 	-nan
scalar Network.dyn_peer[9939] 	lookupTimeSig:mean 	-nan
scalar Network.dyn_peer[9939] 	lookupStabilitySig:mean 	-nan
scalar Network.dyn_peer[9939] 	lookupHopsSig:mean 	-nan
scalar Network.dyn_peer[9940] 	lookupTimeSig:mean 	-nan
scalar Network.dyn_peer[9940] 	lookupStabilitySig:mean 	-nan
scalar Network.dyn_peer[9940] 	lookupHopsSig:mean 	-nan
scalar Network.dyn_peer[9941] 	lookupTimeSig:mean 	-nan
scalar Network.dyn_peer[9941] 	lookupStabilitySig:mean 	-nan
scalar Network.dyn_peer[9941] 	lookupHopsSig:mean 	-nan
scalar Network.dyn_peer[9942] 	lookupTimeSig:mean 	-nan
scalar Network.dyn_peer[9942] 	lookupStabilitySig:mean 	-nan
scalar Network.dyn_peer[9942] 	lookupHopsSig:mean 	-nan
scalar Network.dyn_peer[9943] 	lookupTimeSig:mean 	-nan
scalar Network.dyn_peer[9943] 	lookupStabilitySig:mean 	-nan
scalar Network.dyn_peer[9943] 	lookupHopsSig:mean 	-nan
scalar Network.dyn_peer[9944] 	lookupTimeSig:mean 	-nan
scalar Network.dyn_peer[9944] 	lookupStabilitySig:mean 	-nan
scalar Network.dyn_peer[9944] 	lookupHopsSig:mean 	-nan
scalar Network.dyn_peer[9945] 	lookupTimeSig:mean 	-nan
scalar Network.dyn_peer[9945] 	lookupStabilitySig:mean 	-nan
scalar Network.dyn_peer[9945] 	lookupHopsSig:mean 	-nan
scalar Network.dyn_peer[9946] 	lookupTimeSig:mean 	-nan
scalar Network.dyn_peer[9946] 	lookupStabilitySig:mean 	-nan
scalar Network.dyn_peer[9946] 	lookupHopsSig:mean 	-nan
scalar Network.dyn_peer[9947] 	lookupTimeSig:mean 	-nan
scalar Network.dyn_peer[9947] 	lookupStabilitySig:mean 	-nan
scalar Network.dyn_peer[9947] 	lookupHopsSig:mean 	-nan
scalar Network.dyn_peer[9948] 	lookupTimeSig:mean 	-nan
scalar Network.dyn_peer[9948] 	lookupStabilitySig:mean 	-nan
scalar Network.dyn_peer[9948] 	lookupHopsSig:mean 	-nan
scalar Network.dyn_peer[9949] 	lookupTimeSig:mean 	-nan
scalar Network.dyn_peer[9949] 	lookupStabilitySig:mean 	-nan
scalar Network.dyn_peer[9949] 	lookupHopsSig:mean 	-nan
scalar Network.dyn_peer[9950] 	lookupTimeSig:mean 	-nan
scalar Network.dyn_peer[9950] 	lookupStabilitySig:mean 	-nan
scalar Network.dyn_peer[9950] 	lookupHopsSig:mean 	-nan
scalar Network.dyn_peer[9951] 	lookupTimeSig:mean 	-nan
scalar Network.dyn_peer[9951] 	lookupStabilitySig:mean 	-nan
scalar Network.dyn_peer[9951] 	lookupHopsSig:mean 	-nan
scalar Network.dyn_peer[9952] 	lookupTimeSig:mean 	-nan
scalar Network.dyn_peer[9952] 	lookupStabilitySig:mean 	-nan
scalar Network.dyn_peer[9952] 	lookupHopsSig:mean 	-nan
scalar Network.dyn_peer[9953] 	lookupTimeSig:mean 	-nan
scalar Network.dyn_peer[9953] 	lookupStabilitySig:mean 	-nan
scalar Network.dyn_peer[9953] 	lookupHopsSig:mean 	-nan
scalar Network.dyn_peer[9954] 	lookupTimeSig:mean 	-nan
scalar Network.dyn_peer[9954] 	lookupStabilitySig:mean 	-nan
scalar Network.dyn_peer[9954] 	lookupHopsSig:mean 	-nan
scalar Network.dyn_peer[9955] 	lookupTimeSig:mean 	-nan
scalar Network.dyn_peer[9955] 	lookupStabilitySig:mean 	-nan
scalar Network.dyn_peer[9955] 	lookupHopsSig:mean 	-nan
scalar Network.dyn_peer[9956] 	lookupTimeSig:mean 	-nan
scalar Network.dyn_peer[9956] 	lookupStabilitySig:mean 	-nan
scalar Network.dyn_peer[9956] 	lookupHopsSig:mean 	-nan
scalar Network.dyn_peer[9957] 	lookupTimeSig:mean 	-nan
scalar Network.dyn_peer[9957] 	lookupStabilitySig:mean 	-nan
scalar Network.dyn_peer[9957] 	lookupHopsSig:mean 	-nan
scalar Network.dyn_peer[9958] 	lookupTimeSig:mean 	-nan
scalar Network.dyn_peer[9958] 	lookupStabilitySig:mean 	-nan
scalar Network.dyn_peer[9958] 	lookupHopsSig:mean 	-nan
scalar Network.dyn_peer[9959] 	lookupTimeSig:mean 	-nan
scalar Network.dyn_peer[9959] 	lookupStabilitySig:mean 	-nan
scalar Network.dyn_peer[9959] 	lookupHopsSig:mean 	-nan
scalar Network.dyn_peer[9960] 	lookupTimeSig:mean 	-nan
scalar Network.dyn_peer[9960] 	lookupStabilitySig:mean 	-nan
scalar Network.dyn_peer[9960] 	lookupHopsSig:mean 	-nan
scalar Network.dyn_peer[9961] 	lookupTimeSig:mean 	-nan
scalar Network.dyn_peer[9961] 	lookupStabilitySig:mean 	-nan
scalar Network.dyn_peer[9961] 	lookupHopsSig:mean 	-nan
scalar Network.dyn_peer[9962] 	lookupTimeSig:mean 	-nan
scalar Network.dyn_peer[9962] 	lookupStabilitySig:mean 	-nan
scalar Network.dyn_peer[9962] 	lookupHopsSig:mean 	-nan
scalar Network.dyn_peer[9963] 	lookupTimeSig:mean 	-nan
scalar Network.dyn_peer[9963] 	lookupStabilitySig:mean 	-nan
scalar Network.dyn_peer[9963] 	lookupHopsSig:mean 	-nan
scalar Network.dyn_peer[9964] 	lookupTimeSig:mean 	-nan
scalar Network.dyn_peer[9964] 	lookupStabilitySig:mean 	-nan
scalar Network.dyn_peer[9964] 	lookupHopsSig:mean 	-nan
scalar Network.dyn_peer[9965] 	lookupTimeSig:mean 	-nan
scalar Network.dyn_peer[9965] 	lookupStabilitySig:mean 	-nan
scalar Network.dyn_peer[9965] 	lookupHopsSig:mean 	-nan
scalar Network.dyn_peer[9966] 	lookupTimeSig:mean 	-nan
scalar Network.dyn_peer[9966] 	lookupStabilitySig:mean 	-nan
scalar Network.dyn_peer[9966] 	lookupHopsSig:mean 	-nan
scalar Network.dyn_peer[9967] 	lookupTimeSig:mean 	-nan
scalar Network.dyn_peer[9967] 	lookupStabilitySig:mean 	-nan
scalar Network.dyn_peer[9967] 	lookupHopsSig:mean 	-nan
scalar Network.dyn_peer[9968] 	lookupTimeSig:mean 	-nan
scalar Network.dyn_peer[9968] 	lookupStabilitySig:mean 	-nan
scalar Network.dyn_peer[9968] 	lookupHopsSig:mean 	-nan
scalar Network.dyn_peer[9969] 	lookupTimeSig:mean 	-nan
scalar Network.dyn_peer[9969] 	lookupStabilitySig:mean 	-nan
scalar Network.dyn_peer[9969] 	lookupHopsSig:mean 	-nan
scalar Network.dyn_peer[9970] 	lookupTimeSig:mean 	-nan
scalar Network.dyn_peer[9970] 	lookupStabilitySig:mean 	-nan
scalar Network.dyn_peer[9970] 	lookupHopsSig:mean 	-nan
scalar Network.dyn_peer[9971] 	lookupTimeSig:mean 	-nan
scalar Network.dyn_peer[9971] 	lookupStabilitySig:mean 	-nan
scalar Network.dyn_peer[9971] 	lookupHopsSig:mean 	-nan
scalar Network.dyn_peer[9972] 	lookupTimeSig:mean 	-nan
scalar Network.dyn_peer[9972] 	lookupStabilitySig:mean 	-nan
scalar Network.dyn_peer[9972] 	lookupHopsSig:mean 	-nan
scalar Network.dyn_peer[9973] 	lookupTimeSig:mean 	-nan
scalar Network.dyn_peer[9973] 	lookupStabilitySig:mean 	-nan
scalar Network.dyn_peer[9973] 	lookupHopsSig:mean 	-nan
scalar Network.dyn_peer[9974] 	lookupTimeSig:mean 	-nan
scalar Network.dyn_peer[9974] 	lookupStabilitySig:mean 	-nan
scalar Network.dyn_peer[9974] 	lookupHopsSig:mean 	-nan
scalar Network.dyn_peer[9975] 	lookupTimeSig:mean 	-nan
scalar Network.dyn_peer[9975] 	lookupStabilitySig:mean 	-nan
scalar Network.dyn_peer[9975] 	lookupHopsSig:mean 	-nan
scalar Network.dyn_peer[9976] 	lookupTimeSig:mean 	-nan
scalar Network.dyn_peer[9976] 	lookupStabilitySig:mean 	-nan
scalar Network.dyn_peer[9976] 	lookupHopsSig:mean 	-nan
scalar Network.dyn_peer[9977] 	lookupTimeSig:mean 	-nan
scalar Network.dyn_peer[9977] 	lookupStabilitySig:mean 	-nan
scalar Network.dyn_peer[9977] 	lookupHopsSig:mean 	-nan
scalar Network.dyn_peer[9978] 	lookupTimeSig:mean 	-nan
scalar Network.dyn_peer[9978] 	lookupStabilitySig:mean 	-nan
scalar Network.dyn_peer[9978] 	lookupHopsSig:mean 	-nan
scalar Network.dyn_peer[9979] 	lookupTimeSig:mean 	-nan
scalar Network.dyn_peer[9979] 	lookupStabilitySig:mean 	-nan
scalar Network.dyn_peer[9979] 	lookupHopsSig:mean 	-nan
scalar Network.dyn_peer[9980] 	lookupTimeSig:mean 	-nan
scalar Network.dyn_peer[9980] 	lookupStabilitySig:mean 	-nan
scalar Network.dyn_peer[9980] 	lookupHopsSig:mean 	-nan
scalar Network.dyn_peer[9981] 	lookupTimeSig:mean 	-nan
scalar Network.dyn_peer[9981] 	lookupStabilitySig:mean 	-nan
scalar Network.dyn_peer[9981] 	lookupHopsSig:mean 	-nan
scalar Network.dyn_peer[9982] 	lookupTimeSig:mean 	-nan
scalar Network.dyn_peer[9982] 	lookupStabilitySig:mean 	-nan
scalar Network.dyn_peer[9982] 	lookupHopsSig:mean 	-nan
scalar Network.dyn_peer[9983] 	lookupTimeSig:mean 	-nan
scalar Network.dyn_peer[9983] 	lookupStabilitySig:mean 	-nan
scalar Network.dyn_peer[9983] 	lookupHopsSig:mean 	-nan
scalar Network.dyn_peer[9984] 	lookupTimeSig:mean 	-nan
scalar Network.dyn_peer[9984] 	lookupStabilitySig:mean 	-nan
scalar Network.dyn_peer[9984] 	lookupHopsSig:mean 	-nan
scalar Network.dyn_peer[9985] 	lookupTimeSig:mean 	-nan
scalar Network.dyn_peer[9985] 	lookupStabilitySig:mean 	-nan
scalar Network.dyn_peer[9985] 	lookupHopsSig:mean 	-nan
scalar Network.dyn_peer[9986] 	lookupTimeSig:mean 	-nan
scalar Network.dyn_peer[9986] 	lookupStabilitySig:mean 	-nan
scalar Network.dyn_peer[9986] 	lookupHopsSig:mean 	-nan
scalar Network.dyn_peer[9987] 	lookupTimeSig:mean 	-nan
scalar Network.dyn_peer[9987] 	lookupStabilitySig:mean 	-nan
scalar Network.dyn_peer[9987] 	lookupHopsSig:mean 	-nan
scalar Network.dyn_peer[9988] 	lookupTimeSig:mean 	-nan
scalar Network.dyn_peer[9988] 	lookupStabilitySig:mean 	-nan
scalar Network.dyn_peer[9988] 	lookupHopsSig:mean 	-nan
scalar Network.dyn_peer[9989] 	lookupTimeSig:mean 	-nan
scalar Network.dyn_peer[9989] 	lookupStabilitySig:mean 	-nan
scalar Network.dyn_peer[9989] 	lookupHopsSig:mean 	-nan
scalar Network.dyn_peer[9990] 	lookupTimeSig:mean 	-nan
scalar Network.dyn_peer[9990] 	lookupStabilitySig:mean 	-nan
scalar Network.dyn_peer[9990] 	lookupHopsSig:mean 	-nan
scalar Network.dyn_peer[9991] 	lookupTimeSig:mean 	-nan
scalar Network.dyn_peer[9991] 	lookupStabilitySig:mean 	-nan
scalar Network.dyn_peer[9991] 	lookupHopsSig:mean 	-nan
scalar Network.dyn_peer[9992] 	lookupTimeSig:mean 	-nan
scalar Network.dyn_peer[9992] 	lookupStabilitySig:mean 	-nan
scalar Network.dyn_peer[9992] 	lookupHopsSig:mean 	-nan
scalar Network.dyn_peer[9993] 	lookupTimeSig:mean 	-nan
scalar Network.dyn_peer[9993] 	lookupStabilitySig:mean 	-nan
scalar Network.dyn_peer[9993] 	lookupHopsSig:mean 	-nan
scalar Network.dyn_peer[9994] 	lookupTimeSig:mean 	-nan
scalar Network.dyn_peer[9994] 	lookupStabilitySig:mean 	-nan
scalar Network.dyn_peer[9994] 	lookupHopsSig:mean 	-nan
scalar Network.dyn_peer[9995] 	lookupTimeSig:mean 	-nan
scalar Network.dyn_peer[9995] 	lookupStabilitySig:mean 	-nan
scalar Network.dyn_peer[9995] 	lookupHopsSig:mean 	-nan
scalar Network.dyn_peer[9996] 	lookupTimeSig:mean 	-nan
scalar Network.dyn_peer[9996] 	lookupStabilitySig:mean 	-nan
scalar Network.dyn_peer[9996] 	lookupHopsSig:mean 	-nan
scalar Network.dyn_peer[9997] 	lookupTimeSig:mean 	-nan
scalar Network.dyn_peer[9997] 	lookupStabilitySig:mean 	-nan
scalar Network.dyn_peer[9997] 	lookupHopsSig:mean 	-nan
scalar Network.dyn_peer[9998] 	lookupTimeSig:mean 	-nan
scalar Network.dyn_peer[9998] 	lookupStabilitySig:mean 	-nan
scalar Network.dyn_peer[9998] 	lookupHopsSig:mean 	-nan
scalar Network.dyn_peer[9999] 	lookupTimeSig:mean 	-nan
scalar Network.dyn_peer[9999] 	lookupStabilitySig:mean 	-nan
scalar Network.dyn_peer[9999] 	lookupHopsSig:mean 	-nan
scalar Network.churner 	inGoingSizeSig:mean 	1271.3385322935
