version 2
run Stability2-103-20130528-02:04:46-24168
attr configname Stability2
attr datetime 20130528-02:04:46
attr experiment Stability2
attr inifile omnetpp.ini
attr iterationvars $0=1000
attr iterationvars2 "$0=1000, $repetition=3"
attr measurement $0=1000
attr network Network
attr processid 24168
attr repetition 3
attr replication #3
attr resultdir results
attr runnumber 103
attr seedset 103

scalar Network.dyn_peer[0] 	lookupTimeSig:mean 	3.8857142857143
scalar Network.dyn_peer[0] 	lookupStabilitySig:mean 	0.89496860655379
scalar Network.dyn_peer[0] 	lookupHopsSig:mean 	37.904761904762
scalar Network.dyn_peer[1] 	lookupTimeSig:mean 	3.0714285714286
scalar Network.dyn_peer[1] 	lookupStabilitySig:mean 	0.85288381064311
scalar Network.dyn_peer[1] 	lookupHopsSig:mean 	29.785714285714
scalar Network.dyn_peer[2] 	lookupTimeSig:mean 	2.6944444444444
scalar Network.dyn_peer[2] 	lookupStabilitySig:mean 	0.86676614282704
scalar Network.dyn_peer[2] 	lookupHopsSig:mean 	26
scalar Network.dyn_peer[3] 	lookupTimeSig:mean 	3.2333333333333
scalar Network.dyn_peer[3] 	lookupStabilitySig:mean 	0.86735269756367
scalar Network.dyn_peer[3] 	lookupHopsSig:mean 	31.4
scalar Network.dyn_peer[4] 	lookupTimeSig:mean 	3.1225806451613
scalar Network.dyn_peer[4] 	lookupStabilitySig:mean 	0.92014949122864
scalar Network.dyn_peer[4] 	lookupHopsSig:mean 	30.258064516129
scalar Network.dyn_peer[5] 	lookupTimeSig:mean 	3.1647058823529
scalar Network.dyn_peer[5] 	lookupStabilitySig:mean 	0.86559522036901
scalar Network.dyn_peer[5] 	lookupHopsSig:mean 	30.705882352941
scalar Network.dyn_peer[6] 	lookupTimeSig:mean 	2.6157894736842
scalar Network.dyn_peer[6] 	lookupStabilitySig:mean 	0.87527404590755
scalar Network.dyn_peer[6] 	lookupHopsSig:mean 	25.210526315789
scalar Network.dyn_peer[7] 	lookupTimeSig:mean 	3.4888888888889
scalar Network.dyn_peer[7] 	lookupStabilitySig:mean 	0.87723566246374
scalar Network.dyn_peer[7] 	lookupHopsSig:mean 	33.944444444444
scalar Network.dyn_peer[8] 	lookupTimeSig:mean 	3.9869565217391
scalar Network.dyn_peer[8] 	lookupStabilitySig:mean 	0.89617498599641
scalar Network.dyn_peer[8] 	lookupHopsSig:mean 	38.913043478261
scalar Network.dyn_peer[9] 	lookupTimeSig:mean 	3.1941176470588
scalar Network.dyn_peer[9] 	lookupStabilitySig:mean 	0.87927853422897
scalar Network.dyn_peer[9] 	lookupHopsSig:mean 	31
scalar Network.dyn_peer[10] 	lookupTimeSig:mean 	2.8277777777778
scalar Network.dyn_peer[10] 	lookupStabilitySig:mean 	0.89298189454712
scalar Network.dyn_peer[10] 	lookupHopsSig:mean 	27.333333333333
scalar Network.dyn_peer[11] 	lookupTimeSig:mean 	2.45
scalar Network.dyn_peer[11] 	lookupStabilitySig:mean 	0.86189419621951
scalar Network.dyn_peer[11] 	lookupHopsSig:mean 	23.5625
scalar Network.dyn_peer[12] 	lookupTimeSig:mean 	2.6
scalar Network.dyn_peer[12] 	lookupStabilitySig:mean 	0.88720902404748
scalar Network.dyn_peer[12] 	lookupHopsSig:mean 	25.05
scalar Network.dyn_peer[13] 	lookupTimeSig:mean 	3.1769230769231
scalar Network.dyn_peer[13] 	lookupStabilitySig:mean 	0.85284388251603
scalar Network.dyn_peer[13] 	lookupHopsSig:mean 	30.846153846154
scalar Network.dyn_peer[14] 	lookupTimeSig:mean 	2.7473684210526
scalar Network.dyn_peer[14] 	lookupStabilitySig:mean 	0.90356091987709
scalar Network.dyn_peer[14] 	lookupHopsSig:mean 	26.526315789474
scalar Network.dyn_peer[15] 	lookupTimeSig:mean 	3.3454545454545
scalar Network.dyn_peer[15] 	lookupStabilitySig:mean 	0.88677895754914
scalar Network.dyn_peer[15] 	lookupHopsSig:mean 	32.5
scalar Network.dyn_peer[16] 	lookupTimeSig:mean 	2.0347826086957
scalar Network.dyn_peer[16] 	lookupStabilitySig:mean 	0.90452809502249
scalar Network.dyn_peer[16] 	lookupHopsSig:mean 	19.391304347826
scalar Network.dyn_peer[17] 	lookupTimeSig:mean 	4.028
scalar Network.dyn_peer[17] 	lookupStabilitySig:mean 	0.91161772254854
scalar Network.dyn_peer[17] 	lookupHopsSig:mean 	39.32
scalar Network.dyn_peer[18] 	lookupTimeSig:mean 	3.2166666666667
scalar Network.dyn_peer[18] 	lookupStabilitySig:mean 	0.81745277814722
scalar Network.dyn_peer[18] 	lookupHopsSig:mean 	31.25
scalar Network.dyn_peer[19] 	lookupTimeSig:mean 	4.0571428571429
scalar Network.dyn_peer[19] 	lookupStabilitySig:mean 	0.88700709443739
scalar Network.dyn_peer[19] 	lookupHopsSig:mean 	39.642857142857
scalar Network.dyn_peer[20] 	lookupTimeSig:mean 	1.704347826087
scalar Network.dyn_peer[20] 	lookupStabilitySig:mean 	0.91320699645692
scalar Network.dyn_peer[20] 	lookupHopsSig:mean 	16.086956521739
scalar Network.dyn_peer[21] 	lookupTimeSig:mean 	3.7047619047619
scalar Network.dyn_peer[21] 	lookupStabilitySig:mean 	0.90265717825276
scalar Network.dyn_peer[21] 	lookupHopsSig:mean 	36.095238095238
scalar Network.dyn_peer[22] 	lookupTimeSig:mean 	2.73125
scalar Network.dyn_peer[22] 	lookupStabilitySig:mean 	0.89120601239847
scalar Network.dyn_peer[22] 	lookupHopsSig:mean 	26.375
scalar Network.dyn_peer[23] 	lookupTimeSig:mean 	3.1333333333333
scalar Network.dyn_peer[23] 	lookupStabilitySig:mean 	0.92081787378439
scalar Network.dyn_peer[23] 	lookupHopsSig:mean 	30.380952380952
scalar Network.dyn_peer[24] 	lookupTimeSig:mean 	3.2944444444444
scalar Network.dyn_peer[24] 	lookupStabilitySig:mean 	0.91136379488226
scalar Network.dyn_peer[24] 	lookupHopsSig:mean 	32
scalar Network.dyn_peer[25] 	lookupTimeSig:mean 	3.3066666666667
scalar Network.dyn_peer[25] 	lookupStabilitySig:mean 	0.88822893705219
scalar Network.dyn_peer[25] 	lookupHopsSig:mean 	32.133333333333
scalar Network.dyn_peer[26] 	lookupTimeSig:mean 	3.7727272727273
scalar Network.dyn_peer[26] 	lookupStabilitySig:mean 	0.92231890271333
scalar Network.dyn_peer[26] 	lookupHopsSig:mean 	36.772727272727
scalar Network.dyn_peer[27] 	lookupTimeSig:mean 	2.135
scalar Network.dyn_peer[27] 	lookupStabilitySig:mean 	0.89514450048518
scalar Network.dyn_peer[27] 	lookupHopsSig:mean 	20.4
scalar Network.dyn_peer[28] 	lookupTimeSig:mean 	2.425
scalar Network.dyn_peer[28] 	lookupStabilitySig:mean 	0.92312638066942
scalar Network.dyn_peer[28] 	lookupHopsSig:mean 	23.3
scalar Network.dyn_peer[29] 	lookupTimeSig:mean 	3.3692307692308
scalar Network.dyn_peer[29] 	lookupStabilitySig:mean 	0.91129921277304
scalar Network.dyn_peer[29] 	lookupHopsSig:mean 	32.730769230769
scalar Network.dyn_peer[30] 	lookupTimeSig:mean 	3.0130434782609
scalar Network.dyn_peer[30] 	lookupStabilitySig:mean 	0.92417520489771
scalar Network.dyn_peer[30] 	lookupHopsSig:mean 	29.173913043478
scalar Network.dyn_peer[31] 	lookupTimeSig:mean 	2.7857142857143
scalar Network.dyn_peer[31] 	lookupStabilitySig:mean 	0.90507338136168
scalar Network.dyn_peer[31] 	lookupHopsSig:mean 	26.928571428571
scalar Network.dyn_peer[32] 	lookupTimeSig:mean 	3.3
scalar Network.dyn_peer[32] 	lookupStabilitySig:mean 	0.93601094045549
scalar Network.dyn_peer[32] 	lookupHopsSig:mean 	32.045454545455
scalar Network.dyn_peer[33] 	lookupTimeSig:mean 	2.975
scalar Network.dyn_peer[33] 	lookupStabilitySig:mean 	0.93245724330191
scalar Network.dyn_peer[33] 	lookupHopsSig:mean 	28.8
scalar Network.dyn_peer[34] 	lookupTimeSig:mean 	3.3842105263158
scalar Network.dyn_peer[34] 	lookupStabilitySig:mean 	0.9057395420846
scalar Network.dyn_peer[34] 	lookupHopsSig:mean 	32.894736842105
scalar Network.dyn_peer[35] 	lookupTimeSig:mean 	2.615
scalar Network.dyn_peer[35] 	lookupStabilitySig:mean 	0.91018675089581
scalar Network.dyn_peer[35] 	lookupHopsSig:mean 	25.2
scalar Network.dyn_peer[36] 	lookupTimeSig:mean 	3.8384615384615
scalar Network.dyn_peer[36] 	lookupStabilitySig:mean 	0.92594962772161
scalar Network.dyn_peer[36] 	lookupHopsSig:mean 	37.423076923077
scalar Network.dyn_peer[37] 	lookupTimeSig:mean 	2.8368421052632
scalar Network.dyn_peer[37] 	lookupStabilitySig:mean 	0.88851673952549
scalar Network.dyn_peer[37] 	lookupHopsSig:mean 	27.421052631579
scalar Network.dyn_peer[38] 	lookupTimeSig:mean 	3.7923076923077
scalar Network.dyn_peer[38] 	lookupStabilitySig:mean 	0.92514294532325
scalar Network.dyn_peer[38] 	lookupHopsSig:mean 	36.961538461538
scalar Network.dyn_peer[39] 	lookupTimeSig:mean 	2.9307692307692
scalar Network.dyn_peer[39] 	lookupStabilitySig:mean 	0.92000580366808
scalar Network.dyn_peer[39] 	lookupHopsSig:mean 	28.346153846154
scalar Network.dyn_peer[40] 	lookupTimeSig:mean 	3.9130434782609
scalar Network.dyn_peer[40] 	lookupStabilitySig:mean 	0.95195830889608
scalar Network.dyn_peer[40] 	lookupHopsSig:mean 	38.173913043478
scalar Network.dyn_peer[41] 	lookupTimeSig:mean 	2.8722222222222
scalar Network.dyn_peer[41] 	lookupStabilitySig:mean 	0.93617387633357
scalar Network.dyn_peer[41] 	lookupHopsSig:mean 	27.777777777778
scalar Network.dyn_peer[42] 	lookupTimeSig:mean 	3.455
scalar Network.dyn_peer[42] 	lookupStabilitySig:mean 	0.92796940370463
scalar Network.dyn_peer[42] 	lookupHopsSig:mean 	33.6
scalar Network.dyn_peer[43] 	lookupTimeSig:mean 	2.6176470588235
scalar Network.dyn_peer[43] 	lookupStabilitySig:mean 	0.89810452879379
scalar Network.dyn_peer[43] 	lookupHopsSig:mean 	25.235294117647
scalar Network.dyn_peer[44] 	lookupTimeSig:mean 	4.1782608695652
scalar Network.dyn_peer[44] 	lookupStabilitySig:mean 	0.91861491783967
scalar Network.dyn_peer[44] 	lookupHopsSig:mean 	40.826086956522
scalar Network.dyn_peer[45] 	lookupTimeSig:mean 	3.156
scalar Network.dyn_peer[45] 	lookupStabilitySig:mean 	0.92502911800053
scalar Network.dyn_peer[45] 	lookupHopsSig:mean 	30.6
scalar Network.dyn_peer[46] 	lookupTimeSig:mean 	3.8666666666667
scalar Network.dyn_peer[46] 	lookupStabilitySig:mean 	0.92818087514887
scalar Network.dyn_peer[46] 	lookupHopsSig:mean 	37.703703703704
scalar Network.dyn_peer[47] 	lookupTimeSig:mean 	2.7
scalar Network.dyn_peer[47] 	lookupStabilitySig:mean 	0.93692695362155
scalar Network.dyn_peer[47] 	lookupHopsSig:mean 	26.045454545455
scalar Network.dyn_peer[48] 	lookupTimeSig:mean 	3.7047619047619
scalar Network.dyn_peer[48] 	lookupStabilitySig:mean 	0.91147645118292
scalar Network.dyn_peer[48] 	lookupHopsSig:mean 	36.095238095238
scalar Network.dyn_peer[49] 	lookupTimeSig:mean 	2.16
scalar Network.dyn_peer[49] 	lookupStabilitySig:mean 	0.91575160007924
scalar Network.dyn_peer[49] 	lookupHopsSig:mean 	20.65
scalar Network.dyn_peer[50] 	lookupTimeSig:mean 	3.8947368421053
scalar Network.dyn_peer[50] 	lookupStabilitySig:mean 	0.90006329954945
scalar Network.dyn_peer[50] 	lookupHopsSig:mean 	38
scalar Network.dyn_peer[51] 	lookupTimeSig:mean 	2.75625
scalar Network.dyn_peer[51] 	lookupStabilitySig:mean 	0.90434946859023
scalar Network.dyn_peer[51] 	lookupHopsSig:mean 	26.625
scalar Network.dyn_peer[52] 	lookupTimeSig:mean 	2.1928571428571
scalar Network.dyn_peer[52] 	lookupStabilitySig:mean 	0.91115447340001
scalar Network.dyn_peer[52] 	lookupHopsSig:mean 	21
scalar Network.dyn_peer[53] 	lookupTimeSig:mean 	3.4346153846154
scalar Network.dyn_peer[53] 	lookupStabilitySig:mean 	0.94555260349835
scalar Network.dyn_peer[53] 	lookupHopsSig:mean 	33.384615384615
scalar Network.dyn_peer[54] 	lookupTimeSig:mean 	2.94
scalar Network.dyn_peer[54] 	lookupStabilitySig:mean 	0.95195115214059
scalar Network.dyn_peer[54] 	lookupHopsSig:mean 	28.433333333333
scalar Network.dyn_peer[55] 	lookupTimeSig:mean 	3.3214285714286
scalar Network.dyn_peer[55] 	lookupStabilitySig:mean 	0.90179647628351
scalar Network.dyn_peer[55] 	lookupHopsSig:mean 	32.285714285714
scalar Network.dyn_peer[56] 	lookupTimeSig:mean 	1.7923076923077
scalar Network.dyn_peer[56] 	lookupStabilitySig:mean 	0.87231979633753
scalar Network.dyn_peer[56] 	lookupHopsSig:mean 	17
scalar Network.dyn_peer[57] 	lookupTimeSig:mean 	3.7125
scalar Network.dyn_peer[57] 	lookupStabilitySig:mean 	0.94518066678817
scalar Network.dyn_peer[57] 	lookupHopsSig:mean 	36.166666666667
scalar Network.dyn_peer[58] 	lookupTimeSig:mean 	3.8333333333333
scalar Network.dyn_peer[58] 	lookupStabilitySig:mean 	0.94461679651674
scalar Network.dyn_peer[58] 	lookupHopsSig:mean 	37.375
scalar Network.dyn_peer[59] 	lookupTimeSig:mean 	2.1708333333333
scalar Network.dyn_peer[59] 	lookupStabilitySig:mean 	0.94197195375455
scalar Network.dyn_peer[59] 	lookupHopsSig:mean 	20.75
scalar Network.dyn_peer[60] 	lookupTimeSig:mean 	3.325
scalar Network.dyn_peer[60] 	lookupStabilitySig:mean 	0.92367301175836
scalar Network.dyn_peer[60] 	lookupHopsSig:mean 	32.3
scalar Network.dyn_peer[61] 	lookupTimeSig:mean 	2.8540540540541
scalar Network.dyn_peer[61] 	lookupStabilitySig:mean 	0.96377036047351
scalar Network.dyn_peer[61] 	lookupHopsSig:mean 	27.567567567568
scalar Network.dyn_peer[62] 	lookupTimeSig:mean 	3.9095238095238
scalar Network.dyn_peer[62] 	lookupStabilitySig:mean 	0.93468989174081
scalar Network.dyn_peer[62] 	lookupHopsSig:mean 	38.142857142857
scalar Network.dyn_peer[63] 	lookupTimeSig:mean 	3.35
scalar Network.dyn_peer[63] 	lookupStabilitySig:mean 	0.9047099960444
scalar Network.dyn_peer[63] 	lookupHopsSig:mean 	32.5625
scalar Network.dyn_peer[64] 	lookupTimeSig:mean 	2.5578947368421
scalar Network.dyn_peer[64] 	lookupStabilitySig:mean 	0.94296692600964
scalar Network.dyn_peer[64] 	lookupHopsSig:mean 	24.631578947368
scalar Network.dyn_peer[65] 	lookupTimeSig:mean 	3.3
scalar Network.dyn_peer[65] 	lookupStabilitySig:mean 	0.88946892693639
scalar Network.dyn_peer[65] 	lookupHopsSig:mean 	32.090909090909
scalar Network.dyn_peer[66] 	lookupTimeSig:mean 	3.6136363636364
scalar Network.dyn_peer[66] 	lookupStabilitySig:mean 	0.93684579893968
scalar Network.dyn_peer[66] 	lookupHopsSig:mean 	35.181818181818
scalar Network.dyn_peer[67] 	lookupTimeSig:mean 	3.0933333333333
scalar Network.dyn_peer[67] 	lookupStabilitySig:mean 	0.9152979217004
scalar Network.dyn_peer[67] 	lookupHopsSig:mean 	30
scalar Network.dyn_peer[68] 	lookupTimeSig:mean 	3.0090909090909
scalar Network.dyn_peer[68] 	lookupStabilitySig:mean 	0.93979975590694
scalar Network.dyn_peer[68] 	lookupHopsSig:mean 	29.136363636364
scalar Network.dyn_peer[69] 	lookupTimeSig:mean 	3.775
scalar Network.dyn_peer[69] 	lookupStabilitySig:mean 	0.91809903213289
scalar Network.dyn_peer[69] 	lookupHopsSig:mean 	36.8125
scalar Network.dyn_peer[70] 	lookupTimeSig:mean 	3.2833333333333
scalar Network.dyn_peer[70] 	lookupStabilitySig:mean 	0.91368974609132
scalar Network.dyn_peer[70] 	lookupHopsSig:mean 	31.888888888889
scalar Network.dyn_peer[71] 	lookupTimeSig:mean 	3.3473684210526
scalar Network.dyn_peer[71] 	lookupStabilitySig:mean 	0.95038775903614
scalar Network.dyn_peer[71] 	lookupHopsSig:mean 	32.526315789474
scalar Network.dyn_peer[72] 	lookupTimeSig:mean 	4.1352941176471
scalar Network.dyn_peer[72] 	lookupStabilitySig:mean 	0.90571447538541
scalar Network.dyn_peer[72] 	lookupHopsSig:mean 	40.411764705882
scalar Network.dyn_peer[73] 	lookupTimeSig:mean 	3.5964285714286
scalar Network.dyn_peer[73] 	lookupStabilitySig:mean 	0.95623380796834
scalar Network.dyn_peer[73] 	lookupHopsSig:mean 	35
scalar Network.dyn_peer[74] 	lookupTimeSig:mean 	2.95
scalar Network.dyn_peer[74] 	lookupStabilitySig:mean 	0.93252445447301
scalar Network.dyn_peer[74] 	lookupHopsSig:mean 	28.545454545455
scalar Network.dyn_peer[75] 	lookupTimeSig:mean 	3.2
scalar Network.dyn_peer[75] 	lookupStabilitySig:mean 	0.94515726518584
scalar Network.dyn_peer[75] 	lookupHopsSig:mean 	31.05
scalar Network.dyn_peer[76] 	lookupTimeSig:mean 	3.4285714285714
scalar Network.dyn_peer[76] 	lookupStabilitySig:mean 	0.94757744383449
scalar Network.dyn_peer[76] 	lookupHopsSig:mean 	33.321428571429
scalar Network.dyn_peer[77] 	lookupTimeSig:mean 	2.0666666666667
scalar Network.dyn_peer[77] 	lookupStabilitySig:mean 	0.91579167507589
scalar Network.dyn_peer[77] 	lookupHopsSig:mean 	19.733333333333
scalar Network.dyn_peer[78] 	lookupTimeSig:mean 	4.6
scalar Network.dyn_peer[78] 	lookupStabilitySig:mean 	0.95076412329217
scalar Network.dyn_peer[78] 	lookupHopsSig:mean 	45.05
scalar Network.dyn_peer[79] 	lookupTimeSig:mean 	3.544
scalar Network.dyn_peer[79] 	lookupStabilitySig:mean 	0.93819912601262
scalar Network.dyn_peer[79] 	lookupHopsSig:mean 	34.48
scalar Network.dyn_peer[80] 	lookupTimeSig:mean 	3.3529411764706
scalar Network.dyn_peer[80] 	lookupStabilitySig:mean 	0.92548168771078
scalar Network.dyn_peer[80] 	lookupHopsSig:mean 	32.588235294118
scalar Network.dyn_peer[81] 	lookupTimeSig:mean 	2.3761904761905
scalar Network.dyn_peer[81] 	lookupStabilitySig:mean 	0.94391966657713
scalar Network.dyn_peer[81] 	lookupHopsSig:mean 	22.809523809524
scalar Network.dyn_peer[82] 	lookupTimeSig:mean 	2.4230769230769
scalar Network.dyn_peer[82] 	lookupStabilitySig:mean 	0.92221688332323
scalar Network.dyn_peer[82] 	lookupHopsSig:mean 	23.307692307692
scalar Network.dyn_peer[83] 	lookupTimeSig:mean 	3.1826086956522
scalar Network.dyn_peer[83] 	lookupStabilitySig:mean 	0.9484915789318
scalar Network.dyn_peer[83] 	lookupHopsSig:mean 	30.869565217391
scalar Network.dyn_peer[84] 	lookupTimeSig:mean 	3.5833333333333
scalar Network.dyn_peer[84] 	lookupStabilitySig:mean 	0.95763332038769
scalar Network.dyn_peer[84] 	lookupHopsSig:mean 	34.875
scalar Network.dyn_peer[85] 	lookupTimeSig:mean 	3.41875
scalar Network.dyn_peer[85] 	lookupStabilitySig:mean 	0.94806298840558
scalar Network.dyn_peer[85] 	lookupHopsSig:mean 	33.25
scalar Network.dyn_peer[86] 	lookupTimeSig:mean 	1.6
scalar Network.dyn_peer[86] 	lookupStabilitySig:mean 	0.92054002099814
scalar Network.dyn_peer[86] 	lookupHopsSig:mean 	15.076923076923
scalar Network.dyn_peer[87] 	lookupTimeSig:mean 	2.6153846153846
scalar Network.dyn_peer[87] 	lookupStabilitySig:mean 	0.9490770973498
scalar Network.dyn_peer[87] 	lookupHopsSig:mean 	25.192307692308
scalar Network.dyn_peer[88] 	lookupTimeSig:mean 	4
scalar Network.dyn_peer[88] 	lookupStabilitySig:mean 	0.94426525736471
scalar Network.dyn_peer[88] 	lookupHopsSig:mean 	39.04347826087
scalar Network.dyn_peer[89] 	lookupTimeSig:mean 	2.4733333333333
scalar Network.dyn_peer[89] 	lookupStabilitySig:mean 	0.92342030036574
scalar Network.dyn_peer[89] 	lookupHopsSig:mean 	23.8
scalar Network.dyn_peer[90] 	lookupTimeSig:mean 	3.475
scalar Network.dyn_peer[90] 	lookupStabilitySig:mean 	0.91456291809057
scalar Network.dyn_peer[90] 	lookupHopsSig:mean 	33.833333333333
scalar Network.dyn_peer[91] 	lookupTimeSig:mean 	3.5368421052632
scalar Network.dyn_peer[91] 	lookupStabilitySig:mean 	0.9537518201641
scalar Network.dyn_peer[91] 	lookupHopsSig:mean 	34.421052631579
scalar Network.dyn_peer[92] 	lookupTimeSig:mean 	3.2064516129032
scalar Network.dyn_peer[92] 	lookupStabilitySig:mean 	0.9573941550165
scalar Network.dyn_peer[92] 	lookupHopsSig:mean 	31.096774193548
scalar Network.dyn_peer[93] 	lookupTimeSig:mean 	2.8166666666667
scalar Network.dyn_peer[93] 	lookupStabilitySig:mean 	0.95653926475594
scalar Network.dyn_peer[93] 	lookupHopsSig:mean 	27.2
scalar Network.dyn_peer[94] 	lookupTimeSig:mean 	2.97
scalar Network.dyn_peer[94] 	lookupStabilitySig:mean 	0.93832157415454
scalar Network.dyn_peer[94] 	lookupHopsSig:mean 	28.75
scalar Network.dyn_peer[95] 	lookupTimeSig:mean 	2.9153846153846
scalar Network.dyn_peer[95] 	lookupStabilitySig:mean 	0.92294986334701
scalar Network.dyn_peer[95] 	lookupHopsSig:mean 	28.230769230769
scalar Network.dyn_peer[96] 	lookupTimeSig:mean 	2.3761904761905
scalar Network.dyn_peer[96] 	lookupStabilitySig:mean 	0.94453548618947
scalar Network.dyn_peer[96] 	lookupHopsSig:mean 	22.809523809524
scalar Network.dyn_peer[97] 	lookupTimeSig:mean 	3.8105263157895
scalar Network.dyn_peer[97] 	lookupStabilitySig:mean 	0.93169841854098
scalar Network.dyn_peer[97] 	lookupHopsSig:mean 	37.157894736842
scalar Network.dyn_peer[98] 	lookupTimeSig:mean 	2.6785714285714
scalar Network.dyn_peer[98] 	lookupStabilitySig:mean 	0.92608904103482
scalar Network.dyn_peer[98] 	lookupHopsSig:mean 	25.857142857143
scalar Network.dyn_peer[99] 	lookupTimeSig:mean 	2.9454545454545
scalar Network.dyn_peer[99] 	lookupStabilitySig:mean 	0.94555346740791
scalar Network.dyn_peer[99] 	lookupHopsSig:mean 	28.5
scalar Network.dyn_peer[100] 	lookupTimeSig:mean 	3.2083333333333
scalar Network.dyn_peer[100] 	lookupStabilitySig:mean 	0.94663831327974
scalar Network.dyn_peer[100] 	lookupHopsSig:mean 	31.125
scalar Network.dyn_peer[101] 	lookupTimeSig:mean 	3.5181818181818
scalar Network.dyn_peer[101] 	lookupStabilitySig:mean 	0.95253025884317
scalar Network.dyn_peer[101] 	lookupHopsSig:mean 	34.227272727273
scalar Network.dyn_peer[102] 	lookupTimeSig:mean 	3.3
scalar Network.dyn_peer[102] 	lookupStabilitySig:mean 	0.95635121701407
scalar Network.dyn_peer[102] 	lookupHopsSig:mean 	32.04347826087
scalar Network.dyn_peer[103] 	lookupTimeSig:mean 	2.5368421052632
scalar Network.dyn_peer[103] 	lookupStabilitySig:mean 	0.93952977311748
scalar Network.dyn_peer[103] 	lookupHopsSig:mean 	24.421052631579
scalar Network.dyn_peer[104] 	lookupTimeSig:mean 	2.6208333333333
scalar Network.dyn_peer[104] 	lookupStabilitySig:mean 	0.95391915700263
scalar Network.dyn_peer[104] 	lookupHopsSig:mean 	25.25
scalar Network.dyn_peer[105] 	lookupTimeSig:mean 	2.72
scalar Network.dyn_peer[105] 	lookupStabilitySig:mean 	0.93253734667475
scalar Network.dyn_peer[105] 	lookupHopsSig:mean 	26.266666666667
scalar Network.dyn_peer[106] 	lookupTimeSig:mean 	3.1764705882353
scalar Network.dyn_peer[106] 	lookupStabilitySig:mean 	0.94430889124872
scalar Network.dyn_peer[106] 	lookupHopsSig:mean 	30.823529411765
scalar Network.dyn_peer[107] 	lookupTimeSig:mean 	2.8583333333333
scalar Network.dyn_peer[107] 	lookupStabilitySig:mean 	0.95625784355313
scalar Network.dyn_peer[107] 	lookupHopsSig:mean 	27.625
scalar Network.dyn_peer[108] 	lookupTimeSig:mean 	4.25625
scalar Network.dyn_peer[108] 	lookupStabilitySig:mean 	0.92817947763251
scalar Network.dyn_peer[108] 	lookupHopsSig:mean 	41.625
scalar Network.dyn_peer[109] 	lookupTimeSig:mean 	2.352380952381
scalar Network.dyn_peer[109] 	lookupStabilitySig:mean 	0.94393129237661
scalar Network.dyn_peer[109] 	lookupHopsSig:mean 	22.571428571429
scalar Network.dyn_peer[110] 	lookupTimeSig:mean 	3.5121212121212
scalar Network.dyn_peer[110] 	lookupStabilitySig:mean 	0.96472929667498
scalar Network.dyn_peer[110] 	lookupHopsSig:mean 	34.151515151515
scalar Network.dyn_peer[111] 	lookupTimeSig:mean 	3.5076923076923
scalar Network.dyn_peer[111] 	lookupStabilitySig:mean 	0.9286933101248
scalar Network.dyn_peer[111] 	lookupHopsSig:mean 	34.153846153846
scalar Network.dyn_peer[112] 	lookupTimeSig:mean 	2.155
scalar Network.dyn_peer[112] 	lookupStabilitySig:mean 	0.96041301787482
scalar Network.dyn_peer[112] 	lookupHopsSig:mean 	20.6
scalar Network.dyn_peer[113] 	lookupTimeSig:mean 	2.8769230769231
scalar Network.dyn_peer[113] 	lookupStabilitySig:mean 	0.9196428041547
scalar Network.dyn_peer[113] 	lookupHopsSig:mean 	27.846153846154
scalar Network.dyn_peer[114] 	lookupTimeSig:mean 	2.7823529411765
scalar Network.dyn_peer[114] 	lookupStabilitySig:mean 	0.96149961676051
scalar Network.dyn_peer[114] 	lookupHopsSig:mean 	26.882352941176
scalar Network.dyn_peer[115] 	lookupTimeSig:mean 	3.3888888888889
scalar Network.dyn_peer[115] 	lookupStabilitySig:mean 	0.94423651569782
scalar Network.dyn_peer[115] 	lookupHopsSig:mean 	32.944444444444
scalar Network.dyn_peer[116] 	lookupTimeSig:mean 	2.7473684210526
scalar Network.dyn_peer[116] 	lookupStabilitySig:mean 	0.93809352589673
scalar Network.dyn_peer[116] 	lookupHopsSig:mean 	26.526315789474
scalar Network.dyn_peer[117] 	lookupTimeSig:mean 	2.9681818181818
scalar Network.dyn_peer[117] 	lookupStabilitySig:mean 	0.95895244265822
scalar Network.dyn_peer[117] 	lookupHopsSig:mean 	28.727272727273
scalar Network.dyn_peer[118] 	lookupTimeSig:mean 	3.2166666666667
scalar Network.dyn_peer[118] 	lookupStabilitySig:mean 	0.92560372781008
scalar Network.dyn_peer[118] 	lookupHopsSig:mean 	31.25
scalar Network.dyn_peer[119] 	lookupTimeSig:mean 	1.22
scalar Network.dyn_peer[119] 	lookupStabilitySig:mean 	0.93683928164343
scalar Network.dyn_peer[119] 	lookupHopsSig:mean 	11.266666666667
scalar Network.dyn_peer[120] 	lookupTimeSig:mean 	3.5041666666667
scalar Network.dyn_peer[120] 	lookupStabilitySig:mean 	0.94752583510369
scalar Network.dyn_peer[120] 	lookupHopsSig:mean 	34.083333333333
scalar Network.dyn_peer[121] 	lookupTimeSig:mean 	2.2214285714286
scalar Network.dyn_peer[121] 	lookupStabilitySig:mean 	0.92676345287223
scalar Network.dyn_peer[121] 	lookupHopsSig:mean 	21.285714285714
scalar Network.dyn_peer[122] 	lookupTimeSig:mean 	2.5176470588235
scalar Network.dyn_peer[122] 	lookupStabilitySig:mean 	0.94535061607466
scalar Network.dyn_peer[122] 	lookupHopsSig:mean 	24.235294117647
scalar Network.dyn_peer[123] 	lookupTimeSig:mean 	2.3
scalar Network.dyn_peer[123] 	lookupStabilitySig:mean 	0.93091408282635
scalar Network.dyn_peer[123] 	lookupHopsSig:mean 	22.0625
scalar Network.dyn_peer[124] 	lookupTimeSig:mean 	3.3153846153846
scalar Network.dyn_peer[124] 	lookupStabilitySig:mean 	0.96623265685048
scalar Network.dyn_peer[124] 	lookupHopsSig:mean 	32.192307692308
scalar Network.dyn_peer[125] 	lookupTimeSig:mean 	3.0263157894737
scalar Network.dyn_peer[125] 	lookupStabilitySig:mean 	0.9471953912197
scalar Network.dyn_peer[125] 	lookupHopsSig:mean 	29.315789473684
scalar Network.dyn_peer[126] 	lookupTimeSig:mean 	2.85
scalar Network.dyn_peer[126] 	lookupStabilitySig:mean 	0.96364200521299
scalar Network.dyn_peer[126] 	lookupHopsSig:mean 	27.533333333333
scalar Network.dyn_peer[127] 	lookupTimeSig:mean 	3.0909090909091
scalar Network.dyn_peer[127] 	lookupStabilitySig:mean 	0.95988593702416
scalar Network.dyn_peer[127] 	lookupHopsSig:mean 	29.954545454545
scalar Network.dyn_peer[128] 	lookupTimeSig:mean 	3.636
scalar Network.dyn_peer[128] 	lookupStabilitySig:mean 	0.95290962721687
scalar Network.dyn_peer[128] 	lookupHopsSig:mean 	35.4
scalar Network.dyn_peer[129] 	lookupTimeSig:mean 	2.6260869565217
scalar Network.dyn_peer[129] 	lookupStabilitySig:mean 	0.95153293759643
scalar Network.dyn_peer[129] 	lookupHopsSig:mean 	25.304347826087
scalar Network.dyn_peer[130] 	lookupTimeSig:mean 	2.9416666666667
scalar Network.dyn_peer[130] 	lookupStabilitySig:mean 	0.96035190053711
scalar Network.dyn_peer[130] 	lookupHopsSig:mean 	28.458333333333
scalar Network.dyn_peer[131] 	lookupTimeSig:mean 	3.3695652173913
scalar Network.dyn_peer[131] 	lookupStabilitySig:mean 	0.95048272454828
scalar Network.dyn_peer[131] 	lookupHopsSig:mean 	32.739130434783
scalar Network.dyn_peer[132] 	lookupTimeSig:mean 	2.8321428571429
scalar Network.dyn_peer[132] 	lookupStabilitySig:mean 	0.96079396978686
scalar Network.dyn_peer[132] 	lookupHopsSig:mean 	27.357142857143
scalar Network.dyn_peer[133] 	lookupTimeSig:mean 	3.5333333333333
scalar Network.dyn_peer[133] 	lookupStabilitySig:mean 	0.93423638579746
scalar Network.dyn_peer[133] 	lookupHopsSig:mean 	34.4
scalar Network.dyn_peer[134] 	lookupTimeSig:mean 	3.7741935483871
scalar Network.dyn_peer[134] 	lookupStabilitySig:mean 	0.96570610858485
scalar Network.dyn_peer[134] 	lookupHopsSig:mean 	36.774193548387
scalar Network.dyn_peer[135] 	lookupTimeSig:mean 	3.1
scalar Network.dyn_peer[135] 	lookupStabilitySig:mean 	0.93750721466495
scalar Network.dyn_peer[135] 	lookupHopsSig:mean 	30.058823529412
scalar Network.dyn_peer[136] 	lookupTimeSig:mean 	1.4625
scalar Network.dyn_peer[136] 	lookupStabilitySig:mean 	0.90679623442702
scalar Network.dyn_peer[136] 	lookupHopsSig:mean 	13.75
scalar Network.dyn_peer[137] 	lookupTimeSig:mean 	2.0107142857143
scalar Network.dyn_peer[137] 	lookupStabilitySig:mean 	0.96774451791134
scalar Network.dyn_peer[137] 	lookupHopsSig:mean 	19.142857142857
scalar Network.dyn_peer[138] 	lookupTimeSig:mean 	3.0941176470588
scalar Network.dyn_peer[138] 	lookupStabilitySig:mean 	0.94928769114674
scalar Network.dyn_peer[138] 	lookupHopsSig:mean 	30
scalar Network.dyn_peer[139] 	lookupTimeSig:mean 	3.8
scalar Network.dyn_peer[139] 	lookupStabilitySig:mean 	0.95463812713278
scalar Network.dyn_peer[139] 	lookupHopsSig:mean 	37.05
scalar Network.dyn_peer[140] 	lookupTimeSig:mean 	2.8434782608696
scalar Network.dyn_peer[140] 	lookupStabilitySig:mean 	0.95742365024457
scalar Network.dyn_peer[140] 	lookupHopsSig:mean 	27.478260869565
scalar Network.dyn_peer[141] 	lookupTimeSig:mean 	2.5333333333333
scalar Network.dyn_peer[141] 	lookupStabilitySig:mean 	0.94019944660055
scalar Network.dyn_peer[141] 	lookupHopsSig:mean 	24.4
scalar Network.dyn_peer[142] 	lookupTimeSig:mean 	3.0136363636364
scalar Network.dyn_peer[142] 	lookupStabilitySig:mean 	0.96481638246174
scalar Network.dyn_peer[142] 	lookupHopsSig:mean 	29.181818181818
scalar Network.dyn_peer[143] 	lookupTimeSig:mean 	3.5619047619048
scalar Network.dyn_peer[143] 	lookupStabilitySig:mean 	0.96223526145332
scalar Network.dyn_peer[143] 	lookupHopsSig:mean 	34.666666666667
scalar Network.dyn_peer[144] 	lookupTimeSig:mean 	3.205
scalar Network.dyn_peer[144] 	lookupStabilitySig:mean 	0.95412479732186
scalar Network.dyn_peer[144] 	lookupHopsSig:mean 	31.1
scalar Network.dyn_peer[145] 	lookupTimeSig:mean 	2.4333333333333
scalar Network.dyn_peer[145] 	lookupStabilitySig:mean 	0.93619389447073
scalar Network.dyn_peer[145] 	lookupHopsSig:mean 	23.4
scalar Network.dyn_peer[146] 	lookupTimeSig:mean 	1.8
scalar Network.dyn_peer[146] 	lookupStabilitySig:mean 	0.94620555557776
scalar Network.dyn_peer[146] 	lookupHopsSig:mean 	17.083333333333
scalar Network.dyn_peer[147] 	lookupTimeSig:mean 	3.05
scalar Network.dyn_peer[147] 	lookupStabilitySig:mean 	0.96160399733344
scalar Network.dyn_peer[147] 	lookupHopsSig:mean 	29.55
scalar Network.dyn_peer[148] 	lookupTimeSig:mean 	2.5913043478261
scalar Network.dyn_peer[148] 	lookupStabilitySig:mean 	0.9583339642951
scalar Network.dyn_peer[148] 	lookupHopsSig:mean 	24.95652173913
scalar Network.dyn_peer[149] 	lookupTimeSig:mean 	2.6571428571429
scalar Network.dyn_peer[149] 	lookupStabilitySig:mean 	0.95518504757257
scalar Network.dyn_peer[149] 	lookupHopsSig:mean 	25.619047619048
scalar Network.dyn_peer[150] 	lookupTimeSig:mean 	1.9714285714286
scalar Network.dyn_peer[150] 	lookupStabilitySig:mean 	0.9574624295291
scalar Network.dyn_peer[150] 	lookupHopsSig:mean 	18.761904761905
scalar Network.dyn_peer[151] 	lookupTimeSig:mean 	3.4757575757576
scalar Network.dyn_peer[151] 	lookupStabilitySig:mean 	0.96686166246549
scalar Network.dyn_peer[151] 	lookupHopsSig:mean 	33.787878787879
scalar Network.dyn_peer[152] 	lookupTimeSig:mean 	3.8409090909091
scalar Network.dyn_peer[152] 	lookupStabilitySig:mean 	0.95704500328495
scalar Network.dyn_peer[152] 	lookupHopsSig:mean 	37.454545454545
scalar Network.dyn_peer[153] 	lookupTimeSig:mean 	4.1481481481481
scalar Network.dyn_peer[153] 	lookupStabilitySig:mean 	0.95771400314859
scalar Network.dyn_peer[153] 	lookupHopsSig:mean 	40.518518518519
scalar Network.dyn_peer[154] 	lookupTimeSig:mean 	2.2230769230769
scalar Network.dyn_peer[154] 	lookupStabilitySig:mean 	0.9400995259818
scalar Network.dyn_peer[154] 	lookupHopsSig:mean 	21.307692307692
scalar Network.dyn_peer[155] 	lookupTimeSig:mean 	3.36
scalar Network.dyn_peer[155] 	lookupStabilitySig:mean 	0.94775581054855
scalar Network.dyn_peer[155] 	lookupHopsSig:mean 	32.65
scalar Network.dyn_peer[156] 	lookupTimeSig:mean 	3.0933333333333
scalar Network.dyn_peer[156] 	lookupStabilitySig:mean 	0.96153022442789
scalar Network.dyn_peer[156] 	lookupHopsSig:mean 	29.966666666667
scalar Network.dyn_peer[157] 	lookupTimeSig:mean 	3.0833333333333
scalar Network.dyn_peer[157] 	lookupStabilitySig:mean 	0.9303767780851
scalar Network.dyn_peer[157] 	lookupHopsSig:mean 	29.916666666667
scalar Network.dyn_peer[158] 	lookupTimeSig:mean 	2.535
scalar Network.dyn_peer[158] 	lookupStabilitySig:mean 	0.95492257698206
scalar Network.dyn_peer[158] 	lookupHopsSig:mean 	24.4
scalar Network.dyn_peer[159] 	lookupTimeSig:mean 	3.1
scalar Network.dyn_peer[159] 	lookupStabilitySig:mean 	0.96006805504672
scalar Network.dyn_peer[159] 	lookupHopsSig:mean 	30.04
scalar Network.dyn_peer[160] 	lookupTimeSig:mean 	3.5357142857143
scalar Network.dyn_peer[160] 	lookupStabilitySig:mean 	0.96990257696598
scalar Network.dyn_peer[160] 	lookupHopsSig:mean 	34.392857142857
scalar Network.dyn_peer[161] 	lookupTimeSig:mean 	3.2285714285714
scalar Network.dyn_peer[161] 	lookupStabilitySig:mean 	0.94800409903317
scalar Network.dyn_peer[161] 	lookupHopsSig:mean 	31.357142857143
scalar Network.dyn_peer[162] 	lookupTimeSig:mean 	3.5185185185185
scalar Network.dyn_peer[162] 	lookupStabilitySig:mean 	0.96691452694574
scalar Network.dyn_peer[162] 	lookupHopsSig:mean 	34.222222222222
scalar Network.dyn_peer[163] 	lookupTimeSig:mean 	3.5909090909091
scalar Network.dyn_peer[163] 	lookupStabilitySig:mean 	0.97258886752057
scalar Network.dyn_peer[163] 	lookupHopsSig:mean 	34.939393939394
scalar Network.dyn_peer[164] 	lookupTimeSig:mean 	3.7526315789474
scalar Network.dyn_peer[164] 	lookupStabilitySig:mean 	0.94749760125935
scalar Network.dyn_peer[164] 	lookupHopsSig:mean 	36.578947368421
scalar Network.dyn_peer[165] 	lookupTimeSig:mean 	2.8083333333333
scalar Network.dyn_peer[165] 	lookupStabilitySig:mean 	0.95906003694593
scalar Network.dyn_peer[165] 	lookupHopsSig:mean 	27.125
scalar Network.dyn_peer[166] 	lookupTimeSig:mean 	3.45
scalar Network.dyn_peer[166] 	lookupStabilitySig:mean 	0.96127916792466
scalar Network.dyn_peer[166] 	lookupHopsSig:mean 	33.5625
scalar Network.dyn_peer[167] 	lookupTimeSig:mean 	3.5535714285714
scalar Network.dyn_peer[167] 	lookupStabilitySig:mean 	0.96183324097157
scalar Network.dyn_peer[167] 	lookupHopsSig:mean 	34.571428571429
scalar Network.dyn_peer[168] 	lookupTimeSig:mean 	3.352
scalar Network.dyn_peer[168] 	lookupStabilitySig:mean 	0.95830975253601
scalar Network.dyn_peer[168] 	lookupHopsSig:mean 	32.56
scalar Network.dyn_peer[169] 	lookupTimeSig:mean 	3.672
scalar Network.dyn_peer[169] 	lookupStabilitySig:mean 	0.96336529975757
scalar Network.dyn_peer[169] 	lookupHopsSig:mean 	35.76
scalar Network.dyn_peer[170] 	lookupTimeSig:mean 	3.6333333333333
scalar Network.dyn_peer[170] 	lookupStabilitySig:mean 	0.94474769554411
scalar Network.dyn_peer[170] 	lookupHopsSig:mean 	35.388888888889
scalar Network.dyn_peer[171] 	lookupTimeSig:mean 	3.7944444444444
scalar Network.dyn_peer[171] 	lookupStabilitySig:mean 	0.95963168578843
scalar Network.dyn_peer[171] 	lookupHopsSig:mean 	37
scalar Network.dyn_peer[172] 	lookupTimeSig:mean 	2.675
scalar Network.dyn_peer[172] 	lookupStabilitySig:mean 	0.95791895794294
scalar Network.dyn_peer[172] 	lookupHopsSig:mean 	25.791666666667
scalar Network.dyn_peer[173] 	lookupTimeSig:mean 	3.15
scalar Network.dyn_peer[173] 	lookupStabilitySig:mean 	0.9561516177142
scalar Network.dyn_peer[173] 	lookupHopsSig:mean 	30.55
scalar Network.dyn_peer[174] 	lookupTimeSig:mean 	2.5625
scalar Network.dyn_peer[174] 	lookupStabilitySig:mean 	0.96293161761908
scalar Network.dyn_peer[174] 	lookupHopsSig:mean 	24.666666666667
scalar Network.dyn_peer[175] 	lookupTimeSig:mean 	4.4157894736842
scalar Network.dyn_peer[175] 	lookupStabilitySig:mean 	0.9510324690491
scalar Network.dyn_peer[175] 	lookupHopsSig:mean 	43.210526315789
scalar Network.dyn_peer[176] 	lookupTimeSig:mean 	3.6434782608696
scalar Network.dyn_peer[176] 	lookupStabilitySig:mean 	0.96133746674003
scalar Network.dyn_peer[176] 	lookupHopsSig:mean 	35.478260869565
scalar Network.dyn_peer[177] 	lookupTimeSig:mean 	3.4722222222222
scalar Network.dyn_peer[177] 	lookupStabilitySig:mean 	0.950294776949
scalar Network.dyn_peer[177] 	lookupHopsSig:mean 	33.777777777778
scalar Network.dyn_peer[178] 	lookupTimeSig:mean 	2.9083333333333
scalar Network.dyn_peer[178] 	lookupStabilitySig:mean 	0.9408759988534
scalar Network.dyn_peer[178] 	lookupHopsSig:mean 	28.166666666667
scalar Network.dyn_peer[179] 	lookupTimeSig:mean 	3.2733333333333
scalar Network.dyn_peer[179] 	lookupStabilitySig:mean 	0.94181493734941
scalar Network.dyn_peer[179] 	lookupHopsSig:mean 	31.8
scalar Network.dyn_peer[180] 	lookupTimeSig:mean 	2.908
scalar Network.dyn_peer[180] 	lookupStabilitySig:mean 	0.96122875857051
scalar Network.dyn_peer[180] 	lookupHopsSig:mean 	28.12
scalar Network.dyn_peer[181] 	lookupTimeSig:mean 	2.675
scalar Network.dyn_peer[181] 	lookupStabilitySig:mean 	0.94824294117279
scalar Network.dyn_peer[181] 	lookupHopsSig:mean 	25.833333333333
scalar Network.dyn_peer[182] 	lookupTimeSig:mean 	2.8192307692308
scalar Network.dyn_peer[182] 	lookupStabilitySig:mean 	0.96673356349213
scalar Network.dyn_peer[182] 	lookupHopsSig:mean 	27.230769230769
scalar Network.dyn_peer[183] 	lookupTimeSig:mean 	2.9666666666667
scalar Network.dyn_peer[183] 	lookupStabilitySig:mean 	0.94192187131072
scalar Network.dyn_peer[183] 	lookupHopsSig:mean 	28.75
scalar Network.dyn_peer[184] 	lookupTimeSig:mean 	2.7727272727273
scalar Network.dyn_peer[184] 	lookupStabilitySig:mean 	0.96128355177776
scalar Network.dyn_peer[184] 	lookupHopsSig:mean 	26.772727272727
scalar Network.dyn_peer[185] 	lookupTimeSig:mean 	3.5
scalar Network.dyn_peer[185] 	lookupStabilitySig:mean 	0.92915026238188
scalar Network.dyn_peer[185] 	lookupHopsSig:mean 	34.142857142857
scalar Network.dyn_peer[186] 	lookupTimeSig:mean 	3.7538461538462
scalar Network.dyn_peer[186] 	lookupStabilitySig:mean 	0.95562266189462
scalar Network.dyn_peer[186] 	lookupHopsSig:mean 	36.615384615385
scalar Network.dyn_peer[187] 	lookupTimeSig:mean 	2.9818181818182
scalar Network.dyn_peer[187] 	lookupStabilitySig:mean 	0.96154202603396
scalar Network.dyn_peer[187] 	lookupHopsSig:mean 	28.863636363636
scalar Network.dyn_peer[188] 	lookupTimeSig:mean 	4.015
scalar Network.dyn_peer[188] 	lookupStabilitySig:mean 	0.95593423333485
scalar Network.dyn_peer[188] 	lookupHopsSig:mean 	39.2
scalar Network.dyn_peer[189] 	lookupTimeSig:mean 	3.4705882352941
scalar Network.dyn_peer[189] 	lookupStabilitySig:mean 	0.95189688702607
scalar Network.dyn_peer[189] 	lookupHopsSig:mean 	33.764705882353
scalar Network.dyn_peer[190] 	lookupTimeSig:mean 	2.2
scalar Network.dyn_peer[190] 	lookupStabilitySig:mean 	0.95282150091953
scalar Network.dyn_peer[190] 	lookupHopsSig:mean 	21.0625
scalar Network.dyn_peer[191] 	lookupTimeSig:mean 	4.2222222222222
scalar Network.dyn_peer[191] 	lookupStabilitySig:mean 	0.94023733203196
scalar Network.dyn_peer[191] 	lookupHopsSig:mean 	41.333333333333
scalar Network.dyn_peer[192] 	lookupTimeSig:mean 	3.2157894736842
scalar Network.dyn_peer[192] 	lookupStabilitySig:mean 	0.95774916929536
scalar Network.dyn_peer[192] 	lookupHopsSig:mean 	31.210526315789
scalar Network.dyn_peer[193] 	lookupTimeSig:mean 	3.3034482758621
scalar Network.dyn_peer[193] 	lookupStabilitySig:mean 	0.97000833340631
scalar Network.dyn_peer[193] 	lookupHopsSig:mean 	32.068965517241
scalar Network.dyn_peer[194] 	lookupTimeSig:mean 	3.4454545454545
scalar Network.dyn_peer[194] 	lookupStabilitySig:mean 	0.96406767881391
scalar Network.dyn_peer[194] 	lookupHopsSig:mean 	33.5
scalar Network.dyn_peer[195] 	lookupTimeSig:mean 	3.9714285714286
scalar Network.dyn_peer[195] 	lookupStabilitySig:mean 	0.95995463448621
scalar Network.dyn_peer[195] 	lookupHopsSig:mean 	38.761904761905
scalar Network.dyn_peer[196] 	lookupTimeSig:mean 	3.66875
scalar Network.dyn_peer[196] 	lookupStabilitySig:mean 	0.95277163622086
scalar Network.dyn_peer[196] 	lookupHopsSig:mean 	35.75
scalar Network.dyn_peer[197] 	lookupTimeSig:mean 	3.6130434782609
scalar Network.dyn_peer[197] 	lookupStabilitySig:mean 	0.96314354631645
scalar Network.dyn_peer[197] 	lookupHopsSig:mean 	35.173913043478
scalar Network.dyn_peer[198] 	lookupTimeSig:mean 	3.3925925925926
scalar Network.dyn_peer[198] 	lookupStabilitySig:mean 	0.96459340324832
scalar Network.dyn_peer[198] 	lookupHopsSig:mean 	32.962962962963
scalar Network.dyn_peer[199] 	lookupTimeSig:mean 	3.5636363636364
scalar Network.dyn_peer[199] 	lookupStabilitySig:mean 	0.95765985465947
scalar Network.dyn_peer[199] 	lookupHopsSig:mean 	34.681818181818
scalar Network.dyn_peer[200] 	lookupTimeSig:mean 	3.8846153846154
scalar Network.dyn_peer[200] 	lookupStabilitySig:mean 	0.95029297546269
scalar Network.dyn_peer[200] 	lookupHopsSig:mean 	37.923076923077
scalar Network.dyn_peer[201] 	lookupTimeSig:mean 	3.175
scalar Network.dyn_peer[201] 	lookupStabilitySig:mean 	0.96539761398453
scalar Network.dyn_peer[201] 	lookupHopsSig:mean 	30.8
scalar Network.dyn_peer[202] 	lookupTimeSig:mean 	3.2714285714286
scalar Network.dyn_peer[202] 	lookupStabilitySig:mean 	0.96294104007428
scalar Network.dyn_peer[202] 	lookupHopsSig:mean 	31.761904761905
scalar Network.dyn_peer[203] 	lookupTimeSig:mean 	3.4285714285714
scalar Network.dyn_peer[203] 	lookupStabilitySig:mean 	0.94211508993093
scalar Network.dyn_peer[203] 	lookupHopsSig:mean 	33.357142857143
scalar Network.dyn_peer[204] 	lookupTimeSig:mean 	4.1052631578947
scalar Network.dyn_peer[204] 	lookupStabilitySig:mean 	0.95947009333605
scalar Network.dyn_peer[204] 	lookupHopsSig:mean 	40.105263157895
scalar Network.dyn_peer[205] 	lookupTimeSig:mean 	2.8777777777778
scalar Network.dyn_peer[205] 	lookupStabilitySig:mean 	0.96094425568461
scalar Network.dyn_peer[205] 	lookupHopsSig:mean 	27.833333333333
scalar Network.dyn_peer[206] 	lookupTimeSig:mean 	3.3
scalar Network.dyn_peer[206] 	lookupStabilitySig:mean 	0.94579328953599
scalar Network.dyn_peer[206] 	lookupHopsSig:mean 	32.066666666667
scalar Network.dyn_peer[207] 	lookupTimeSig:mean 	3.0636363636364
scalar Network.dyn_peer[207] 	lookupStabilitySig:mean 	0.97850574512091
scalar Network.dyn_peer[207] 	lookupHopsSig:mean 	29.666666666667
scalar Network.dyn_peer[208] 	lookupTimeSig:mean 	2.656
scalar Network.dyn_peer[208] 	lookupStabilitySig:mean 	0.96386615158059
scalar Network.dyn_peer[208] 	lookupHopsSig:mean 	25.6
scalar Network.dyn_peer[209] 	lookupTimeSig:mean 	3.4088235294118
scalar Network.dyn_peer[209] 	lookupStabilitySig:mean 	0.9730152319432
scalar Network.dyn_peer[209] 	lookupHopsSig:mean 	33.117647058824
scalar Network.dyn_peer[210] 	lookupTimeSig:mean 	4.2137931034483
scalar Network.dyn_peer[210] 	lookupStabilitySig:mean 	0.96849898122861
scalar Network.dyn_peer[210] 	lookupHopsSig:mean 	41.172413793103
scalar Network.dyn_peer[211] 	lookupTimeSig:mean 	3.41
scalar Network.dyn_peer[211] 	lookupStabilitySig:mean 	0.96341801959788
scalar Network.dyn_peer[211] 	lookupHopsSig:mean 	33.15
scalar Network.dyn_peer[212] 	lookupTimeSig:mean 	3.2083333333333
scalar Network.dyn_peer[212] 	lookupStabilitySig:mean 	0.9706397029416
scalar Network.dyn_peer[212] 	lookupHopsSig:mean 	31.125
scalar Network.dyn_peer[213] 	lookupTimeSig:mean 	2.4461538461538
scalar Network.dyn_peer[213] 	lookupStabilitySig:mean 	0.9717696241524
scalar Network.dyn_peer[213] 	lookupHopsSig:mean 	23.538461538462
scalar Network.dyn_peer[214] 	lookupTimeSig:mean 	3.775
scalar Network.dyn_peer[214] 	lookupStabilitySig:mean 	0.9614177463227
scalar Network.dyn_peer[214] 	lookupHopsSig:mean 	36.8125
scalar Network.dyn_peer[215] 	lookupTimeSig:mean 	2.9272727272727
scalar Network.dyn_peer[215] 	lookupStabilitySig:mean 	0.96777235176838
scalar Network.dyn_peer[215] 	lookupHopsSig:mean 	28.318181818182
scalar Network.dyn_peer[216] 	lookupTimeSig:mean 	4.5130434782609
scalar Network.dyn_peer[216] 	lookupStabilitySig:mean 	0.96879975038135
scalar Network.dyn_peer[216] 	lookupHopsSig:mean 	44.173913043478
scalar Network.dyn_peer[217] 	lookupTimeSig:mean 	3.9125
scalar Network.dyn_peer[217] 	lookupStabilitySig:mean 	0.96695546223539
scalar Network.dyn_peer[217] 	lookupHopsSig:mean 	38.166666666667
scalar Network.dyn_peer[218] 	lookupTimeSig:mean 	3.725
scalar Network.dyn_peer[218] 	lookupStabilitySig:mean 	0.96124843214639
scalar Network.dyn_peer[218] 	lookupHopsSig:mean 	36.3
scalar Network.dyn_peer[219] 	lookupTimeSig:mean 	3.4384615384615
scalar Network.dyn_peer[219] 	lookupStabilitySig:mean 	0.96569275724827
scalar Network.dyn_peer[219] 	lookupHopsSig:mean 	33.423076923077
scalar Network.dyn_peer[220] 	lookupTimeSig:mean 	2.6684210526316
scalar Network.dyn_peer[220] 	lookupStabilitySig:mean 	0.95722749973892
scalar Network.dyn_peer[220] 	lookupHopsSig:mean 	25.736842105263
scalar Network.dyn_peer[221] 	lookupTimeSig:mean 	4.0136363636364
scalar Network.dyn_peer[221] 	lookupStabilitySig:mean 	0.96661032763818
scalar Network.dyn_peer[221] 	lookupHopsSig:mean 	39.181818181818
scalar Network.dyn_peer[222] 	lookupTimeSig:mean 	2.2615384615385
scalar Network.dyn_peer[222] 	lookupStabilitySig:mean 	0.96032925616377
scalar Network.dyn_peer[222] 	lookupHopsSig:mean 	21.692307692308
scalar Network.dyn_peer[223] 	lookupTimeSig:mean 	3.4923076923077
scalar Network.dyn_peer[223] 	lookupStabilitySig:mean 	0.9417318061818
scalar Network.dyn_peer[223] 	lookupHopsSig:mean 	34
scalar Network.dyn_peer[224] 	lookupTimeSig:mean 	4.3058823529412
scalar Network.dyn_peer[224] 	lookupStabilitySig:mean 	0.97217035042944
scalar Network.dyn_peer[224] 	lookupHopsSig:mean 	42.117647058824
scalar Network.dyn_peer[225] 	lookupTimeSig:mean 	3.5176470588235
scalar Network.dyn_peer[225] 	lookupStabilitySig:mean 	0.96020652246935
scalar Network.dyn_peer[225] 	lookupHopsSig:mean 	34.235294117647
scalar Network.dyn_peer[226] 	lookupTimeSig:mean 	4.0222222222222
scalar Network.dyn_peer[226] 	lookupStabilitySig:mean 	0.97516223265686
scalar Network.dyn_peer[226] 	lookupHopsSig:mean 	39.259259259259
scalar Network.dyn_peer[227] 	lookupTimeSig:mean 	2.5260869565217
scalar Network.dyn_peer[227] 	lookupStabilitySig:mean 	0.96773111862738
scalar Network.dyn_peer[227] 	lookupHopsSig:mean 	24.304347826087
scalar Network.dyn_peer[228] 	lookupTimeSig:mean 	2.8142857142857
scalar Network.dyn_peer[228] 	lookupStabilitySig:mean 	0.97158007985646
scalar Network.dyn_peer[228] 	lookupHopsSig:mean 	27.190476190476
scalar Network.dyn_peer[229] 	lookupTimeSig:mean 	2.4111111111111
scalar Network.dyn_peer[229] 	lookupStabilitySig:mean 	0.96981130163961
scalar Network.dyn_peer[229] 	lookupHopsSig:mean 	23.166666666667
scalar Network.dyn_peer[230] 	lookupTimeSig:mean 	3.1875
scalar Network.dyn_peer[230] 	lookupStabilitySig:mean 	0.963031653082
scalar Network.dyn_peer[230] 	lookupHopsSig:mean 	30.9375
scalar Network.dyn_peer[231] 	lookupTimeSig:mean 	2.4470588235294
scalar Network.dyn_peer[231] 	lookupStabilitySig:mean 	0.95713563167545
scalar Network.dyn_peer[231] 	lookupHopsSig:mean 	23.529411764706
scalar Network.dyn_peer[232] 	lookupTimeSig:mean 	1.96875
scalar Network.dyn_peer[232] 	lookupStabilitySig:mean 	0.97110257351596
scalar Network.dyn_peer[232] 	lookupHopsSig:mean 	18.75
scalar Network.dyn_peer[233] 	lookupTimeSig:mean 	3.225
scalar Network.dyn_peer[233] 	lookupStabilitySig:mean 	0.9728138071417
scalar Network.dyn_peer[233] 	lookupHopsSig:mean 	31.291666666667
scalar Network.dyn_peer[234] 	lookupTimeSig:mean 	4.255
scalar Network.dyn_peer[234] 	lookupStabilitySig:mean 	0.96179796487559
scalar Network.dyn_peer[234] 	lookupHopsSig:mean 	41.6
scalar Network.dyn_peer[235] 	lookupTimeSig:mean 	3.171875
scalar Network.dyn_peer[235] 	lookupStabilitySig:mean 	0.97396864220718
scalar Network.dyn_peer[235] 	lookupHopsSig:mean 	30.75
scalar Network.dyn_peer[236] 	lookupTimeSig:mean 	2.51875
scalar Network.dyn_peer[236] 	lookupStabilitySig:mean 	0.95987421413156
scalar Network.dyn_peer[236] 	lookupHopsSig:mean 	24.25
scalar Network.dyn_peer[237] 	lookupTimeSig:mean 	3.5333333333333
scalar Network.dyn_peer[237] 	lookupStabilitySig:mean 	0.96627669089853
scalar Network.dyn_peer[237] 	lookupHopsSig:mean 	34.37037037037
scalar Network.dyn_peer[238] 	lookupTimeSig:mean 	2.2473684210526
scalar Network.dyn_peer[238] 	lookupStabilitySig:mean 	0.95923519948203
scalar Network.dyn_peer[238] 	lookupHopsSig:mean 	21.526315789474
scalar Network.dyn_peer[239] 	lookupTimeSig:mean 	2.6736842105263
scalar Network.dyn_peer[239] 	lookupStabilitySig:mean 	0.96368592840276
scalar Network.dyn_peer[239] 	lookupHopsSig:mean 	25.789473684211
scalar Network.dyn_peer[240] 	lookupTimeSig:mean 	4.1333333333333
scalar Network.dyn_peer[240] 	lookupStabilitySig:mean 	0.95564237668489
scalar Network.dyn_peer[240] 	lookupHopsSig:mean 	40.4
scalar Network.dyn_peer[241] 	lookupTimeSig:mean 	2.8615384615385
scalar Network.dyn_peer[241] 	lookupStabilitySig:mean 	0.96162065948682
scalar Network.dyn_peer[241] 	lookupHopsSig:mean 	27.692307692308
scalar Network.dyn_peer[242] 	lookupTimeSig:mean 	4.0266666666667
scalar Network.dyn_peer[242] 	lookupStabilitySig:mean 	0.96989343519478
scalar Network.dyn_peer[242] 	lookupHopsSig:mean 	39.3
scalar Network.dyn_peer[243] 	lookupTimeSig:mean 	4.9190476190476
scalar Network.dyn_peer[243] 	lookupStabilitySig:mean 	0.96281746980025
scalar Network.dyn_peer[243] 	lookupHopsSig:mean 	48.238095238095
scalar Network.dyn_peer[244] 	lookupTimeSig:mean 	2.1
scalar Network.dyn_peer[244] 	lookupStabilitySig:mean 	0.959046443042
scalar Network.dyn_peer[244] 	lookupHopsSig:mean 	20.052631578947
scalar Network.dyn_peer[245] 	lookupTimeSig:mean 	3.6111111111111
scalar Network.dyn_peer[245] 	lookupStabilitySig:mean 	0.9670743956748
scalar Network.dyn_peer[245] 	lookupHopsSig:mean 	35.166666666667
scalar Network.dyn_peer[246] 	lookupTimeSig:mean 	3.1555555555556
scalar Network.dyn_peer[246] 	lookupStabilitySig:mean 	0.96486912036522
scalar Network.dyn_peer[246] 	lookupHopsSig:mean 	30.611111111111
scalar Network.dyn_peer[247] 	lookupTimeSig:mean 	3.6285714285714
scalar Network.dyn_peer[247] 	lookupStabilitySig:mean 	0.94945907413161
scalar Network.dyn_peer[247] 	lookupHopsSig:mean 	35.357142857143
scalar Network.dyn_peer[248] 	lookupTimeSig:mean 	3.0333333333333
scalar Network.dyn_peer[248] 	lookupStabilitySig:mean 	0.96422210045906
scalar Network.dyn_peer[248] 	lookupHopsSig:mean 	29.375
scalar Network.dyn_peer[249] 	lookupTimeSig:mean 	2.3
scalar Network.dyn_peer[249] 	lookupStabilitySig:mean 	0.96068611944405
scalar Network.dyn_peer[249] 	lookupHopsSig:mean 	22.066666666667
scalar Network.dyn_peer[250] 	lookupTimeSig:mean 	2.0333333333333
scalar Network.dyn_peer[250] 	lookupStabilitySig:mean 	0.95350276775037
scalar Network.dyn_peer[250] 	lookupHopsSig:mean 	19.4
scalar Network.dyn_peer[251] 	lookupTimeSig:mean 	2.8
scalar Network.dyn_peer[251] 	lookupStabilitySig:mean 	0.96847639727154
scalar Network.dyn_peer[251] 	lookupHopsSig:mean 	27.041666666667
scalar Network.dyn_peer[252] 	lookupTimeSig:mean 	4.5388888888889
scalar Network.dyn_peer[252] 	lookupStabilitySig:mean 	0.96303577941015
scalar Network.dyn_peer[252] 	lookupHopsSig:mean 	44.444444444444
scalar Network.dyn_peer[253] 	lookupTimeSig:mean 	2.5958333333333
scalar Network.dyn_peer[253] 	lookupStabilitySig:mean 	0.97249282773312
scalar Network.dyn_peer[253] 	lookupHopsSig:mean 	25
scalar Network.dyn_peer[254] 	lookupTimeSig:mean 	3.5826086956522
scalar Network.dyn_peer[254] 	lookupStabilitySig:mean 	0.97160220217547
scalar Network.dyn_peer[254] 	lookupHopsSig:mean 	34.869565217391
scalar Network.dyn_peer[255] 	lookupTimeSig:mean 	2.9478260869565
scalar Network.dyn_peer[255] 	lookupStabilitySig:mean 	0.96823375547588
scalar Network.dyn_peer[255] 	lookupHopsSig:mean 	28.521739130435
scalar Network.dyn_peer[256] 	lookupTimeSig:mean 	3.1705882352941
scalar Network.dyn_peer[256] 	lookupStabilitySig:mean 	0.96108440750772
scalar Network.dyn_peer[256] 	lookupHopsSig:mean 	30.764705882353
scalar Network.dyn_peer[257] 	lookupTimeSig:mean 	5.185
scalar Network.dyn_peer[257] 	lookupStabilitySig:mean 	0.96310765106464
scalar Network.dyn_peer[257] 	lookupHopsSig:mean 	50.9
scalar Network.dyn_peer[258] 	lookupTimeSig:mean 	3.04
scalar Network.dyn_peer[258] 	lookupStabilitySig:mean 	0.96589537482942
scalar Network.dyn_peer[258] 	lookupHopsSig:mean 	29.45
scalar Network.dyn_peer[259] 	lookupTimeSig:mean 	4.2526315789474
scalar Network.dyn_peer[259] 	lookupStabilitySig:mean 	0.96897983441963
scalar Network.dyn_peer[259] 	lookupHopsSig:mean 	41.578947368421
scalar Network.dyn_peer[260] 	lookupTimeSig:mean 	3.4227272727273
scalar Network.dyn_peer[260] 	lookupStabilitySig:mean 	0.96325131435879
scalar Network.dyn_peer[260] 	lookupHopsSig:mean 	33.272727272727
scalar Network.dyn_peer[261] 	lookupTimeSig:mean 	3.2555555555556
scalar Network.dyn_peer[261] 	lookupStabilitySig:mean 	0.95851455010577
scalar Network.dyn_peer[261] 	lookupHopsSig:mean 	31.611111111111
scalar Network.dyn_peer[262] 	lookupTimeSig:mean 	4.2315789473684
scalar Network.dyn_peer[262] 	lookupStabilitySig:mean 	0.96466782782227
scalar Network.dyn_peer[262] 	lookupHopsSig:mean 	41.368421052632
scalar Network.dyn_peer[263] 	lookupTimeSig:mean 	3.3772727272727
scalar Network.dyn_peer[263] 	lookupStabilitySig:mean 	0.96824432155964
scalar Network.dyn_peer[263] 	lookupHopsSig:mean 	32.818181818182
scalar Network.dyn_peer[264] 	lookupTimeSig:mean 	2.7944444444444
scalar Network.dyn_peer[264] 	lookupStabilitySig:mean 	0.97158897667153
scalar Network.dyn_peer[264] 	lookupHopsSig:mean 	27
scalar Network.dyn_peer[265] 	lookupTimeSig:mean 	2.72
scalar Network.dyn_peer[265] 	lookupStabilitySig:mean 	0.97115117065143
scalar Network.dyn_peer[265] 	lookupHopsSig:mean 	26.24
scalar Network.dyn_peer[266] 	lookupTimeSig:mean 	3.9076923076923
scalar Network.dyn_peer[266] 	lookupStabilitySig:mean 	0.97202964587352
scalar Network.dyn_peer[266] 	lookupHopsSig:mean 	38.115384615385
scalar Network.dyn_peer[267] 	lookupTimeSig:mean 	2.96
scalar Network.dyn_peer[267] 	lookupStabilitySig:mean 	0.96985404341482
scalar Network.dyn_peer[267] 	lookupHopsSig:mean 	28.64
scalar Network.dyn_peer[268] 	lookupTimeSig:mean 	2.6133333333333
scalar Network.dyn_peer[268] 	lookupStabilitySig:mean 	0.96267198721568
scalar Network.dyn_peer[268] 	lookupHopsSig:mean 	25.2
scalar Network.dyn_peer[269] 	lookupTimeSig:mean 	4.28
scalar Network.dyn_peer[269] 	lookupStabilitySig:mean 	0.95734264417551
scalar Network.dyn_peer[269] 	lookupHopsSig:mean 	41.866666666667
scalar Network.dyn_peer[270] 	lookupTimeSig:mean 	2.9645161290323
scalar Network.dyn_peer[270] 	lookupStabilitySig:mean 	0.97362591759227
scalar Network.dyn_peer[270] 	lookupHopsSig:mean 	28.677419354839
scalar Network.dyn_peer[271] 	lookupTimeSig:mean 	2.7235294117647
scalar Network.dyn_peer[271] 	lookupStabilitySig:mean 	0.96424002371564
scalar Network.dyn_peer[271] 	lookupHopsSig:mean 	26.294117647059
scalar Network.dyn_peer[272] 	lookupTimeSig:mean 	5.0125
scalar Network.dyn_peer[272] 	lookupStabilitySig:mean 	0.95606104907347
scalar Network.dyn_peer[272] 	lookupHopsSig:mean 	49.1875
scalar Network.dyn_peer[273] 	lookupTimeSig:mean 	3.4444444444444
scalar Network.dyn_peer[273] 	lookupStabilitySig:mean 	0.97771597062712
scalar Network.dyn_peer[273] 	lookupHopsSig:mean 	33.481481481481
scalar Network.dyn_peer[274] 	lookupTimeSig:mean 	4.4838709677419
scalar Network.dyn_peer[274] 	lookupStabilitySig:mean 	0.9724068080353
scalar Network.dyn_peer[274] 	lookupHopsSig:mean 	43.870967741935
scalar Network.dyn_peer[275] 	lookupTimeSig:mean 	3.9391304347826
scalar Network.dyn_peer[275] 	lookupStabilitySig:mean 	0.96567156281241
scalar Network.dyn_peer[275] 	lookupHopsSig:mean 	38.434782608696
scalar Network.dyn_peer[276] 	lookupTimeSig:mean 	2.7090909090909
scalar Network.dyn_peer[276] 	lookupStabilitySig:mean 	0.96318983669731
scalar Network.dyn_peer[276] 	lookupHopsSig:mean 	26.136363636364
scalar Network.dyn_peer[277] 	lookupTimeSig:mean 	3.9055555555556
scalar Network.dyn_peer[277] 	lookupStabilitySig:mean 	0.96707136253826
scalar Network.dyn_peer[277] 	lookupHopsSig:mean 	38.111111111111
scalar Network.dyn_peer[278] 	lookupTimeSig:mean 	2.832
scalar Network.dyn_peer[278] 	lookupStabilitySig:mean 	0.96824943672866
scalar Network.dyn_peer[278] 	lookupHopsSig:mean 	27.36
scalar Network.dyn_peer[279] 	lookupTimeSig:mean 	4.5307692307692
scalar Network.dyn_peer[279] 	lookupStabilitySig:mean 	0.96025627701042
scalar Network.dyn_peer[279] 	lookupHopsSig:mean 	44.384615384615
scalar Network.dyn_peer[280] 	lookupTimeSig:mean 	2.7
scalar Network.dyn_peer[280] 	lookupStabilitySig:mean 	0.96919438645709
scalar Network.dyn_peer[280] 	lookupHopsSig:mean 	26.05
scalar Network.dyn_peer[281] 	lookupTimeSig:mean 	3.752380952381
scalar Network.dyn_peer[281] 	lookupStabilitySig:mean 	0.96581600016604
scalar Network.dyn_peer[281] 	lookupHopsSig:mean 	36.571428571429
scalar Network.dyn_peer[282] 	lookupTimeSig:mean 	3.9321428571429
scalar Network.dyn_peer[282] 	lookupStabilitySig:mean 	0.97610648232512
scalar Network.dyn_peer[282] 	lookupHopsSig:mean 	38.357142857143
scalar Network.dyn_peer[283] 	lookupTimeSig:mean 	3.4291666666667
scalar Network.dyn_peer[283] 	lookupStabilitySig:mean 	0.97417238414346
scalar Network.dyn_peer[283] 	lookupHopsSig:mean 	33.333333333333
scalar Network.dyn_peer[284] 	lookupTimeSig:mean 	2.705
scalar Network.dyn_peer[284] 	lookupStabilitySig:mean 	0.96286000120454
scalar Network.dyn_peer[284] 	lookupHopsSig:mean 	26.1
scalar Network.dyn_peer[285] 	lookupTimeSig:mean 	3.4111111111111
scalar Network.dyn_peer[285] 	lookupStabilitySig:mean 	0.97340632526687
scalar Network.dyn_peer[285] 	lookupHopsSig:mean 	33.148148148148
scalar Network.dyn_peer[286] 	lookupTimeSig:mean 	3.0736842105263
scalar Network.dyn_peer[286] 	lookupStabilitySig:mean 	0.96425425633788
scalar Network.dyn_peer[286] 	lookupHopsSig:mean 	29.789473684211
scalar Network.dyn_peer[287] 	lookupTimeSig:mean 	2.66
scalar Network.dyn_peer[287] 	lookupStabilitySig:mean 	0.96704537463374
scalar Network.dyn_peer[287] 	lookupHopsSig:mean 	25.65
scalar Network.dyn_peer[288] 	lookupTimeSig:mean 	3.38
scalar Network.dyn_peer[288] 	lookupStabilitySig:mean 	0.96619627326727
scalar Network.dyn_peer[288] 	lookupHopsSig:mean 	32.85
scalar Network.dyn_peer[289] 	lookupTimeSig:mean 	3.7714285714286
scalar Network.dyn_peer[289] 	lookupStabilitySig:mean 	0.95688740165705
scalar Network.dyn_peer[289] 	lookupHopsSig:mean 	36.785714285714
scalar Network.dyn_peer[290] 	lookupTimeSig:mean 	3.8909090909091
scalar Network.dyn_peer[290] 	lookupStabilitySig:mean 	0.97096871419556
scalar Network.dyn_peer[290] 	lookupHopsSig:mean 	37.954545454545
scalar Network.dyn_peer[291] 	lookupTimeSig:mean 	1.8117647058824
scalar Network.dyn_peer[291] 	lookupStabilitySig:mean 	0.96768761594328
scalar Network.dyn_peer[291] 	lookupHopsSig:mean 	17.176470588235
scalar Network.dyn_peer[292] 	lookupTimeSig:mean 	3.0269230769231
scalar Network.dyn_peer[292] 	lookupStabilitySig:mean 	0.97175140412471
scalar Network.dyn_peer[292] 	lookupHopsSig:mean 	29.307692307692
scalar Network.dyn_peer[293] 	lookupTimeSig:mean 	2.9857142857143
scalar Network.dyn_peer[293] 	lookupStabilitySig:mean 	0.96359665432413
scalar Network.dyn_peer[293] 	lookupHopsSig:mean 	28.904761904762
scalar Network.dyn_peer[294] 	lookupTimeSig:mean 	3.2454545454545
scalar Network.dyn_peer[294] 	lookupStabilitySig:mean 	0.96780550396282
scalar Network.dyn_peer[294] 	lookupHopsSig:mean 	31.5
scalar Network.dyn_peer[295] 	lookupTimeSig:mean 	4.5380952380952
scalar Network.dyn_peer[295] 	lookupStabilitySig:mean 	0.96727249263564
scalar Network.dyn_peer[295] 	lookupHopsSig:mean 	44.428571428571
scalar Network.dyn_peer[296] 	lookupTimeSig:mean 	2.8923076923077
scalar Network.dyn_peer[296] 	lookupStabilitySig:mean 	0.9752682271512
scalar Network.dyn_peer[296] 	lookupHopsSig:mean 	27.961538461538
scalar Network.dyn_peer[297] 	lookupTimeSig:mean 	1.8666666666667
scalar Network.dyn_peer[297] 	lookupStabilitySig:mean 	0.93966200585581
scalar Network.dyn_peer[297] 	lookupHopsSig:mean 	17.777777777778
scalar Network.dyn_peer[298] 	lookupTimeSig:mean 	1.8636363636364
scalar Network.dyn_peer[298] 	lookupStabilitySig:mean 	0.94997478242625
scalar Network.dyn_peer[298] 	lookupHopsSig:mean 	17.727272727273
scalar Network.dyn_peer[299] 	lookupTimeSig:mean 	3.16
scalar Network.dyn_peer[299] 	lookupStabilitySig:mean 	0.956998097136
scalar Network.dyn_peer[299] 	lookupHopsSig:mean 	30.666666666667
scalar Network.dyn_peer[300] 	lookupTimeSig:mean 	3.0352941176471
scalar Network.dyn_peer[300] 	lookupStabilitySig:mean 	0.96243308101069
scalar Network.dyn_peer[300] 	lookupHopsSig:mean 	29.411764705882
scalar Network.dyn_peer[301] 	lookupTimeSig:mean 	2.9692307692308
scalar Network.dyn_peer[301] 	lookupStabilitySig:mean 	0.95428097457625
scalar Network.dyn_peer[301] 	lookupHopsSig:mean 	28.769230769231
scalar Network.dyn_peer[302] 	lookupTimeSig:mean 	3.088
scalar Network.dyn_peer[302] 	lookupStabilitySig:mean 	0.97327343149111
scalar Network.dyn_peer[302] 	lookupHopsSig:mean 	29.92
scalar Network.dyn_peer[303] 	lookupTimeSig:mean 	2.96
scalar Network.dyn_peer[303] 	lookupStabilitySig:mean 	0.95988288080941
scalar Network.dyn_peer[303] 	lookupHopsSig:mean 	28.666666666667
scalar Network.dyn_peer[304] 	lookupTimeSig:mean 	2.6904761904762
scalar Network.dyn_peer[304] 	lookupStabilitySig:mean 	0.96817578240076
scalar Network.dyn_peer[304] 	lookupHopsSig:mean 	25.952380952381
scalar Network.dyn_peer[305] 	lookupTimeSig:mean 	2.65625
scalar Network.dyn_peer[305] 	lookupStabilitySig:mean 	0.97448421804438
scalar Network.dyn_peer[305] 	lookupHopsSig:mean 	25.59375
scalar Network.dyn_peer[306] 	lookupTimeSig:mean 	2.9545454545455
scalar Network.dyn_peer[306] 	lookupStabilitySig:mean 	0.97187298773365
scalar Network.dyn_peer[306] 	lookupHopsSig:mean 	28.590909090909
scalar Network.dyn_peer[307] 	lookupTimeSig:mean 	3.3176470588235
scalar Network.dyn_peer[307] 	lookupStabilitySig:mean 	0.96999574033543
scalar Network.dyn_peer[307] 	lookupHopsSig:mean 	32.235294117647
scalar Network.dyn_peer[308] 	lookupTimeSig:mean 	2.871875
scalar Network.dyn_peer[308] 	lookupStabilitySig:mean 	0.97570026780159
scalar Network.dyn_peer[308] 	lookupHopsSig:mean 	27.75
scalar Network.dyn_peer[309] 	lookupTimeSig:mean 	3.65
scalar Network.dyn_peer[309] 	lookupStabilitySig:mean 	0.96225817970117
scalar Network.dyn_peer[309] 	lookupHopsSig:mean 	35.5625
scalar Network.dyn_peer[310] 	lookupTimeSig:mean 	3.975
scalar Network.dyn_peer[310] 	lookupStabilitySig:mean 	0.97748226779004
scalar Network.dyn_peer[310] 	lookupHopsSig:mean 	38.78125
scalar Network.dyn_peer[311] 	lookupTimeSig:mean 	2.7277777777778
scalar Network.dyn_peer[311] 	lookupStabilitySig:mean 	0.96744706818006
scalar Network.dyn_peer[311] 	lookupHopsSig:mean 	26.333333333333
scalar Network.dyn_peer[312] 	lookupTimeSig:mean 	3.2416666666667
scalar Network.dyn_peer[312] 	lookupStabilitySig:mean 	0.95954369385921
scalar Network.dyn_peer[312] 	lookupHopsSig:mean 	31.5
scalar Network.dyn_peer[313] 	lookupTimeSig:mean 	1.9769230769231
scalar Network.dyn_peer[313] 	lookupStabilitySig:mean 	0.96075898608587
scalar Network.dyn_peer[313] 	lookupHopsSig:mean 	18.846153846154
scalar Network.dyn_peer[314] 	lookupTimeSig:mean 	3
scalar Network.dyn_peer[314] 	lookupStabilitySig:mean 	0.9567992862867
scalar Network.dyn_peer[314] 	lookupHopsSig:mean 	29.0625
scalar Network.dyn_peer[315] 	lookupTimeSig:mean 	3.89
scalar Network.dyn_peer[315] 	lookupStabilitySig:mean 	0.96460326700471
scalar Network.dyn_peer[315] 	lookupHopsSig:mean 	37.95
scalar Network.dyn_peer[316] 	lookupTimeSig:mean 	3.304
scalar Network.dyn_peer[316] 	lookupStabilitySig:mean 	0.97249779120088
scalar Network.dyn_peer[316] 	lookupHopsSig:mean 	32.08
scalar Network.dyn_peer[317] 	lookupTimeSig:mean 	3.5727272727273
scalar Network.dyn_peer[317] 	lookupStabilitySig:mean 	0.9686673100752
scalar Network.dyn_peer[317] 	lookupHopsSig:mean 	34.772727272727
scalar Network.dyn_peer[318] 	lookupTimeSig:mean 	3.164
scalar Network.dyn_peer[318] 	lookupStabilitySig:mean 	0.9732708687894
scalar Network.dyn_peer[318] 	lookupHopsSig:mean 	30.68
scalar Network.dyn_peer[319] 	lookupTimeSig:mean 	2.8
scalar Network.dyn_peer[319] 	lookupStabilitySig:mean 	0.97176607859728
scalar Network.dyn_peer[319] 	lookupHopsSig:mean 	27.041666666667
scalar Network.dyn_peer[320] 	lookupTimeSig:mean 	3.6214285714286
scalar Network.dyn_peer[320] 	lookupStabilitySig:mean 	0.96751842765869
scalar Network.dyn_peer[320] 	lookupHopsSig:mean 	35.285714285714
scalar Network.dyn_peer[321] 	lookupTimeSig:mean 	3.996
scalar Network.dyn_peer[321] 	lookupStabilitySig:mean 	0.96974267283455
scalar Network.dyn_peer[321] 	lookupHopsSig:mean 	39
scalar Network.dyn_peer[322] 	lookupTimeSig:mean 	3.6222222222222
scalar Network.dyn_peer[322] 	lookupStabilitySig:mean 	0.97460823989887
scalar Network.dyn_peer[322] 	lookupHopsSig:mean 	35.259259259259
scalar Network.dyn_peer[323] 	lookupTimeSig:mean 	3.94
scalar Network.dyn_peer[323] 	lookupStabilitySig:mean 	0.95010477136821
scalar Network.dyn_peer[323] 	lookupHopsSig:mean 	38.5
scalar Network.dyn_peer[324] 	lookupTimeSig:mean 	3.6181818181818
scalar Network.dyn_peer[324] 	lookupStabilitySig:mean 	0.9711481463217
scalar Network.dyn_peer[324] 	lookupHopsSig:mean 	35.227272727273
scalar Network.dyn_peer[325] 	lookupTimeSig:mean 	2.8
scalar Network.dyn_peer[325] 	lookupStabilitySig:mean 	0.97404082101555
scalar Network.dyn_peer[325] 	lookupHopsSig:mean 	27.076923076923
scalar Network.dyn_peer[326] 	lookupTimeSig:mean 	3.6055555555556
scalar Network.dyn_peer[326] 	lookupStabilitySig:mean 	0.97162410407327
scalar Network.dyn_peer[326] 	lookupHopsSig:mean 	35.111111111111
scalar Network.dyn_peer[327] 	lookupTimeSig:mean 	2.495
scalar Network.dyn_peer[327] 	lookupStabilitySig:mean 	0.96632941660937
scalar Network.dyn_peer[327] 	lookupHopsSig:mean 	24
scalar Network.dyn_peer[328] 	lookupTimeSig:mean 	4.216
scalar Network.dyn_peer[328] 	lookupStabilitySig:mean 	0.97842455240898
scalar Network.dyn_peer[328] 	lookupHopsSig:mean 	41.2
scalar Network.dyn_peer[329] 	lookupTimeSig:mean 	3.9461538461538
scalar Network.dyn_peer[329] 	lookupStabilitySig:mean 	0.9511353618537
scalar Network.dyn_peer[329] 	lookupHopsSig:mean 	38.538461538462
scalar Network.dyn_peer[330] 	lookupTimeSig:mean 	2.8933333333333
scalar Network.dyn_peer[330] 	lookupStabilitySig:mean 	0.96420642515101
scalar Network.dyn_peer[330] 	lookupHopsSig:mean 	28
scalar Network.dyn_peer[331] 	lookupTimeSig:mean 	4.41875
scalar Network.dyn_peer[331] 	lookupStabilitySig:mean 	0.96088772275834
scalar Network.dyn_peer[331] 	lookupHopsSig:mean 	43.25
scalar Network.dyn_peer[332] 	lookupTimeSig:mean 	2.9
scalar Network.dyn_peer[332] 	lookupStabilitySig:mean 	0.96787620575115
scalar Network.dyn_peer[332] 	lookupHopsSig:mean 	28.111111111111
scalar Network.dyn_peer[333] 	lookupTimeSig:mean 	3.9923076923077
scalar Network.dyn_peer[333] 	lookupStabilitySig:mean 	0.96496450161346
scalar Network.dyn_peer[333] 	lookupHopsSig:mean 	39
scalar Network.dyn_peer[334] 	lookupTimeSig:mean 	2.9368421052632
scalar Network.dyn_peer[334] 	lookupStabilitySig:mean 	0.9724937590991
scalar Network.dyn_peer[334] 	lookupHopsSig:mean 	28.421052631579
scalar Network.dyn_peer[335] 	lookupTimeSig:mean 	3.7592592592593
scalar Network.dyn_peer[335] 	lookupStabilitySig:mean 	0.97531983666165
scalar Network.dyn_peer[335] 	lookupHopsSig:mean 	36.62962962963
scalar Network.dyn_peer[336] 	lookupTimeSig:mean 	2.9714285714286
scalar Network.dyn_peer[336] 	lookupStabilitySig:mean 	0.96674796355156
scalar Network.dyn_peer[336] 	lookupHopsSig:mean 	28.785714285714
scalar Network.dyn_peer[337] 	lookupTimeSig:mean 	2.7230769230769
scalar Network.dyn_peer[337] 	lookupStabilitySig:mean 	0.97517065551186
scalar Network.dyn_peer[337] 	lookupHopsSig:mean 	26.269230769231
scalar Network.dyn_peer[338] 	lookupTimeSig:mean 	3.4260869565217
scalar Network.dyn_peer[338] 	lookupStabilitySig:mean 	0.96959513609055
scalar Network.dyn_peer[338] 	lookupHopsSig:mean 	33.304347826087
scalar Network.dyn_peer[339] 	lookupTimeSig:mean 	2.905
scalar Network.dyn_peer[339] 	lookupStabilitySig:mean 	0.96520746096503
scalar Network.dyn_peer[339] 	lookupHopsSig:mean 	28.1
scalar Network.dyn_peer[340] 	lookupTimeSig:mean 	3.5269230769231
scalar Network.dyn_peer[340] 	lookupStabilitySig:mean 	0.97202610276872
scalar Network.dyn_peer[340] 	lookupHopsSig:mean 	34.307692307692
scalar Network.dyn_peer[341] 	lookupTimeSig:mean 	2.8294117647059
scalar Network.dyn_peer[341] 	lookupStabilitySig:mean 	0.96410701567691
scalar Network.dyn_peer[341] 	lookupHopsSig:mean 	27.352941176471
scalar Network.dyn_peer[342] 	lookupTimeSig:mean 	3.6352941176471
scalar Network.dyn_peer[342] 	lookupStabilitySig:mean 	0.96240834204261
scalar Network.dyn_peer[342] 	lookupHopsSig:mean 	35.411764705882
scalar Network.dyn_peer[343] 	lookupTimeSig:mean 	3.2125
scalar Network.dyn_peer[343] 	lookupStabilitySig:mean 	0.97518470553041
scalar Network.dyn_peer[343] 	lookupHopsSig:mean 	31.1875
scalar Network.dyn_peer[344] 	lookupTimeSig:mean 	2.3846153846154
scalar Network.dyn_peer[344] 	lookupStabilitySig:mean 	0.95801732080201
scalar Network.dyn_peer[344] 	lookupHopsSig:mean 	22.923076923077
scalar Network.dyn_peer[345] 	lookupTimeSig:mean 	4
scalar Network.dyn_peer[345] 	lookupStabilitySig:mean 	0.9749452892208
scalar Network.dyn_peer[345] 	lookupHopsSig:mean 	39.037037037037
scalar Network.dyn_peer[346] 	lookupTimeSig:mean 	2.7866666666667
scalar Network.dyn_peer[346] 	lookupStabilitySig:mean 	0.96256584835549
scalar Network.dyn_peer[346] 	lookupHopsSig:mean 	26.933333333333
scalar Network.dyn_peer[347] 	lookupTimeSig:mean 	3.6148148148148
scalar Network.dyn_peer[347] 	lookupStabilitySig:mean 	0.97332189187701
scalar Network.dyn_peer[347] 	lookupHopsSig:mean 	35.185185185185
scalar Network.dyn_peer[348] 	lookupTimeSig:mean 	3.3555555555556
scalar Network.dyn_peer[348] 	lookupStabilitySig:mean 	0.96628336984819
scalar Network.dyn_peer[348] 	lookupHopsSig:mean 	32.611111111111
scalar Network.dyn_peer[349] 	lookupTimeSig:mean 	3.0714285714286
scalar Network.dyn_peer[349] 	lookupStabilitySig:mean 	0.95610707915122
scalar Network.dyn_peer[349] 	lookupHopsSig:mean 	29.785714285714
scalar Network.dyn_peer[350] 	lookupTimeSig:mean 	2.8153846153846
scalar Network.dyn_peer[350] 	lookupStabilitySig:mean 	0.95594990633142
scalar Network.dyn_peer[350] 	lookupHopsSig:mean 	27.230769230769
scalar Network.dyn_peer[351] 	lookupTimeSig:mean 	3.1227272727273
scalar Network.dyn_peer[351] 	lookupStabilitySig:mean 	0.97080899969759
scalar Network.dyn_peer[351] 	lookupHopsSig:mean 	30.272727272727
scalar Network.dyn_peer[352] 	lookupTimeSig:mean 	3.1944444444444
scalar Network.dyn_peer[352] 	lookupStabilitySig:mean 	0.97044513379741
scalar Network.dyn_peer[352] 	lookupHopsSig:mean 	31
scalar Network.dyn_peer[353] 	lookupTimeSig:mean 	3.3
scalar Network.dyn_peer[353] 	lookupStabilitySig:mean 	0.96993167794103
scalar Network.dyn_peer[353] 	lookupHopsSig:mean 	32.055555555556
scalar Network.dyn_peer[354] 	lookupTimeSig:mean 	3.8115384615385
scalar Network.dyn_peer[354] 	lookupStabilitySig:mean 	0.97496287913348
scalar Network.dyn_peer[354] 	lookupHopsSig:mean 	37.153846153846
scalar Network.dyn_peer[355] 	lookupTimeSig:mean 	3.5826086956522
scalar Network.dyn_peer[355] 	lookupStabilitySig:mean 	0.97113415051211
scalar Network.dyn_peer[355] 	lookupHopsSig:mean 	34.869565217391
scalar Network.dyn_peer[356] 	lookupTimeSig:mean 	3.7074074074074
scalar Network.dyn_peer[356] 	lookupStabilitySig:mean 	0.97378158979808
scalar Network.dyn_peer[356] 	lookupHopsSig:mean 	36.111111111111
scalar Network.dyn_peer[357] 	lookupTimeSig:mean 	2.7166666666667
scalar Network.dyn_peer[357] 	lookupStabilitySig:mean 	0.9664412887699
scalar Network.dyn_peer[357] 	lookupHopsSig:mean 	26.25
scalar Network.dyn_peer[358] 	lookupTimeSig:mean 	3.0388888888889
scalar Network.dyn_peer[358] 	lookupStabilitySig:mean 	0.97027839287896
scalar Network.dyn_peer[358] 	lookupHopsSig:mean 	29.444444444444
scalar Network.dyn_peer[359] 	lookupTimeSig:mean 	2.7958333333333
scalar Network.dyn_peer[359] 	lookupStabilitySig:mean 	0.97816379510429
scalar Network.dyn_peer[359] 	lookupHopsSig:mean 	27
scalar Network.dyn_peer[360] 	lookupTimeSig:mean 	2.9285714285714
scalar Network.dyn_peer[360] 	lookupStabilitySig:mean 	0.9707748109497
scalar Network.dyn_peer[360] 	lookupHopsSig:mean 	28.333333333333
scalar Network.dyn_peer[361] 	lookupTimeSig:mean 	3.6318181818182
scalar Network.dyn_peer[361] 	lookupStabilitySig:mean 	0.97123154114127
scalar Network.dyn_peer[361] 	lookupHopsSig:mean 	35.363636363636
scalar Network.dyn_peer[362] 	lookupTimeSig:mean 	3.6421052631579
scalar Network.dyn_peer[362] 	lookupStabilitySig:mean 	0.96622743939148
scalar Network.dyn_peer[362] 	lookupHopsSig:mean 	35.473684210526
scalar Network.dyn_peer[363] 	lookupTimeSig:mean 	4.1642857142857
scalar Network.dyn_peer[363] 	lookupStabilitySig:mean 	0.95520711447378
scalar Network.dyn_peer[363] 	lookupHopsSig:mean 	40.714285714286
scalar Network.dyn_peer[364] 	lookupTimeSig:mean 	3.4636363636364
scalar Network.dyn_peer[364] 	lookupStabilitySig:mean 	0.97715003264602
scalar Network.dyn_peer[364] 	lookupHopsSig:mean 	33.681818181818
scalar Network.dyn_peer[365] 	lookupTimeSig:mean 	4.3709677419355
scalar Network.dyn_peer[365] 	lookupStabilitySig:mean 	0.97448476093761
scalar Network.dyn_peer[365] 	lookupHopsSig:mean 	42.741935483871
scalar Network.dyn_peer[366] 	lookupTimeSig:mean 	2.9789473684211
scalar Network.dyn_peer[366] 	lookupStabilitySig:mean 	0.96377345105927
scalar Network.dyn_peer[366] 	lookupHopsSig:mean 	28.842105263158
scalar Network.dyn_peer[367] 	lookupTimeSig:mean 	3.1866666666667
scalar Network.dyn_peer[367] 	lookupStabilitySig:mean 	0.97893077196204
scalar Network.dyn_peer[367] 	lookupHopsSig:mean 	30.9
scalar Network.dyn_peer[368] 	lookupTimeSig:mean 	3.6448275862069
scalar Network.dyn_peer[368] 	lookupStabilitySig:mean 	0.97513649280279
scalar Network.dyn_peer[368] 	lookupHopsSig:mean 	35.48275862069
scalar Network.dyn_peer[369] 	lookupTimeSig:mean 	4.0333333333333
scalar Network.dyn_peer[369] 	lookupStabilitySig:mean 	0.94074162980542
scalar Network.dyn_peer[369] 	lookupHopsSig:mean 	39.5
scalar Network.dyn_peer[370] 	lookupTimeSig:mean 	1.1888888888889
scalar Network.dyn_peer[370] 	lookupStabilitySig:mean 	0.96042667251701
scalar Network.dyn_peer[370] 	lookupHopsSig:mean 	11
scalar Network.dyn_peer[371] 	lookupTimeSig:mean 	4.5521739130435
scalar Network.dyn_peer[371] 	lookupStabilitySig:mean 	0.97374535864219
scalar Network.dyn_peer[371] 	lookupHopsSig:mean 	44.565217391304
scalar Network.dyn_peer[372] 	lookupTimeSig:mean 	4.4785714285714
scalar Network.dyn_peer[372] 	lookupStabilitySig:mean 	0.95825669794743
scalar Network.dyn_peer[372] 	lookupHopsSig:mean 	43.857142857143
scalar Network.dyn_peer[373] 	lookupTimeSig:mean 	4.4923076923077
scalar Network.dyn_peer[373] 	lookupStabilitySig:mean 	0.97231782607448
scalar Network.dyn_peer[373] 	lookupHopsSig:mean 	43.961538461538
scalar Network.dyn_peer[374] 	lookupTimeSig:mean 	2.55
scalar Network.dyn_peer[374] 	lookupStabilitySig:mean 	0.96718091613729
scalar Network.dyn_peer[374] 	lookupHopsSig:mean 	24.5625
scalar Network.dyn_peer[375] 	lookupTimeSig:mean 	2.4764705882353
scalar Network.dyn_peer[375] 	lookupStabilitySig:mean 	0.96238224686343
scalar Network.dyn_peer[375] 	lookupHopsSig:mean 	23.823529411765
scalar Network.dyn_peer[376] 	lookupTimeSig:mean 	4.6541666666667
scalar Network.dyn_peer[376] 	lookupStabilitySig:mean 	0.97924085995328
scalar Network.dyn_peer[376] 	lookupHopsSig:mean 	45.583333333333
scalar Network.dyn_peer[377] 	lookupTimeSig:mean 	3.325
scalar Network.dyn_peer[377] 	lookupStabilitySig:mean 	0.95181794872042
scalar Network.dyn_peer[377] 	lookupHopsSig:mean 	32.333333333333
scalar Network.dyn_peer[378] 	lookupTimeSig:mean 	2.8529411764706
scalar Network.dyn_peer[378] 	lookupStabilitySig:mean 	0.9751783987877
scalar Network.dyn_peer[378] 	lookupHopsSig:mean 	27.588235294118
scalar Network.dyn_peer[379] 	lookupTimeSig:mean 	3.4736842105263
scalar Network.dyn_peer[379] 	lookupStabilitySig:mean 	0.96859532488069
scalar Network.dyn_peer[379] 	lookupHopsSig:mean 	33.789473684211
scalar Network.dyn_peer[380] 	lookupTimeSig:mean 	2.7388888888889
scalar Network.dyn_peer[380] 	lookupStabilitySig:mean 	0.96885620274891
scalar Network.dyn_peer[380] 	lookupHopsSig:mean 	26.444444444444
scalar Network.dyn_peer[381] 	lookupTimeSig:mean 	2.5076923076923
scalar Network.dyn_peer[381] 	lookupStabilitySig:mean 	0.96720743834829
scalar Network.dyn_peer[381] 	lookupHopsSig:mean 	24.153846153846
scalar Network.dyn_peer[382] 	lookupTimeSig:mean 	2.9481481481481
scalar Network.dyn_peer[382] 	lookupStabilitySig:mean 	0.97507119463343
scalar Network.dyn_peer[382] 	lookupHopsSig:mean 	28.518518518519
scalar Network.dyn_peer[383] 	lookupTimeSig:mean 	3.405
scalar Network.dyn_peer[383] 	lookupStabilitySig:mean 	0.97080929192598
scalar Network.dyn_peer[383] 	lookupHopsSig:mean 	33.1
scalar Network.dyn_peer[384] 	lookupTimeSig:mean 	4.1678571428571
scalar Network.dyn_peer[384] 	lookupStabilitySig:mean 	0.97280205198331
scalar Network.dyn_peer[384] 	lookupHopsSig:mean 	40.714285714286
scalar Network.dyn_peer[385] 	lookupTimeSig:mean 	2.6307692307692
scalar Network.dyn_peer[385] 	lookupStabilitySig:mean 	0.9773945169201
scalar Network.dyn_peer[385] 	lookupHopsSig:mean 	25.346153846154
scalar Network.dyn_peer[386] 	lookupTimeSig:mean 	4.7736842105263
scalar Network.dyn_peer[386] 	lookupStabilitySig:mean 	0.97159359447879
scalar Network.dyn_peer[386] 	lookupHopsSig:mean 	46.789473684211
scalar Network.dyn_peer[387] 	lookupTimeSig:mean 	3.18
scalar Network.dyn_peer[387] 	lookupStabilitySig:mean 	0.97181335855275
scalar Network.dyn_peer[387] 	lookupHopsSig:mean 	30.85
scalar Network.dyn_peer[388] 	lookupTimeSig:mean 	2.7714285714286
scalar Network.dyn_peer[388] 	lookupStabilitySig:mean 	0.96699991684207
scalar Network.dyn_peer[388] 	lookupHopsSig:mean 	26.785714285714
scalar Network.dyn_peer[389] 	lookupTimeSig:mean 	2.2733333333333
scalar Network.dyn_peer[389] 	lookupStabilitySig:mean 	0.9637248824661
scalar Network.dyn_peer[389] 	lookupHopsSig:mean 	21.8
scalar Network.dyn_peer[390] 	lookupTimeSig:mean 	3.0363636363636
scalar Network.dyn_peer[390] 	lookupStabilitySig:mean 	0.95608393060551
scalar Network.dyn_peer[390] 	lookupHopsSig:mean 	29.454545454545
scalar Network.dyn_peer[391] 	lookupTimeSig:mean 	3.3733333333333
scalar Network.dyn_peer[391] 	lookupStabilitySig:mean 	0.98115290609033
scalar Network.dyn_peer[391] 	lookupHopsSig:mean 	32.8
scalar Network.dyn_peer[392] 	lookupTimeSig:mean 	3.746875
scalar Network.dyn_peer[392] 	lookupStabilitySig:mean 	0.97986295367809
scalar Network.dyn_peer[392] 	lookupHopsSig:mean 	36.5
scalar Network.dyn_peer[393] 	lookupTimeSig:mean 	4.2875
scalar Network.dyn_peer[393] 	lookupStabilitySig:mean 	0.94951000442961
scalar Network.dyn_peer[393] 	lookupHopsSig:mean 	42
scalar Network.dyn_peer[394] 	lookupTimeSig:mean 	3.7647058823529
scalar Network.dyn_peer[394] 	lookupStabilitySig:mean 	0.96752346191994
scalar Network.dyn_peer[394] 	lookupHopsSig:mean 	36.705882352941
scalar Network.dyn_peer[395] 	lookupTimeSig:mean 	2.2588235294118
scalar Network.dyn_peer[395] 	lookupStabilitySig:mean 	0.97004320777898
scalar Network.dyn_peer[395] 	lookupHopsSig:mean 	21.647058823529
scalar Network.dyn_peer[396] 	lookupTimeSig:mean 	4.13
scalar Network.dyn_peer[396] 	lookupStabilitySig:mean 	0.9707703030319
scalar Network.dyn_peer[396] 	lookupHopsSig:mean 	40.35
scalar Network.dyn_peer[397] 	lookupTimeSig:mean 	3.2333333333333
scalar Network.dyn_peer[397] 	lookupStabilitySig:mean 	0.97076576470863
scalar Network.dyn_peer[397] 	lookupHopsSig:mean 	31.388888888889
scalar Network.dyn_peer[398] 	lookupTimeSig:mean 	4.0733333333333
scalar Network.dyn_peer[398] 	lookupStabilitySig:mean 	0.97251073761533
scalar Network.dyn_peer[398] 	lookupHopsSig:mean 	39.8
scalar Network.dyn_peer[399] 	lookupTimeSig:mean 	3.1315789473684
scalar Network.dyn_peer[399] 	lookupStabilitySig:mean 	0.96770788256177
scalar Network.dyn_peer[399] 	lookupHopsSig:mean 	30.368421052632
scalar Network.dyn_peer[400] 	lookupTimeSig:mean 	3.1263157894737
scalar Network.dyn_peer[400] 	lookupStabilitySig:mean 	0.96598346318167
scalar Network.dyn_peer[400] 	lookupHopsSig:mean 	30.315789473684
scalar Network.dyn_peer[401] 	lookupTimeSig:mean 	3.46
scalar Network.dyn_peer[401] 	lookupStabilitySig:mean 	0.97532835071441
scalar Network.dyn_peer[401] 	lookupHopsSig:mean 	33.64
scalar Network.dyn_peer[402] 	lookupTimeSig:mean 	4.0933333333333
scalar Network.dyn_peer[402] 	lookupStabilitySig:mean 	0.96188621567562
scalar Network.dyn_peer[402] 	lookupHopsSig:mean 	40
scalar Network.dyn_peer[403] 	lookupTimeSig:mean 	3.6904761904762
scalar Network.dyn_peer[403] 	lookupStabilitySig:mean 	0.97116664246035
scalar Network.dyn_peer[403] 	lookupHopsSig:mean 	35.952380952381
scalar Network.dyn_peer[404] 	lookupTimeSig:mean 	2.28
scalar Network.dyn_peer[404] 	lookupStabilitySig:mean 	0.94850809806958
scalar Network.dyn_peer[404] 	lookupHopsSig:mean 	21.9
[...]
scalar Network.dyn_peer[9897] 	lookupStabilitySig:mean 	0.99219589813479
scalar Network.dyn_peer[9897] 	lookupHopsSig:mean 	64
scalar Network.dyn_peer[9898] 	lookupTimeSig:mean 	5.6857142857143
scalar Network.dyn_peer[9898] 	lookupStabilitySig:mean 	0.99308285662638
scalar Network.dyn_peer[9898] 	lookupHopsSig:mean 	56
scalar Network.dyn_peer[9899] 	lookupTimeSig:mean 	5.8
scalar Network.dyn_peer[9899] 	lookupStabilitySig:mean 	0.99347063111297
scalar Network.dyn_peer[9899] 	lookupHopsSig:mean 	57.083333333333
scalar Network.dyn_peer[9900] 	lookupTimeSig:mean 	3.7727272727273
scalar Network.dyn_peer[9900] 	lookupStabilitySig:mean 	0.99540299577215
scalar Network.dyn_peer[9900] 	lookupHopsSig:mean 	36.818181818182
scalar Network.dyn_peer[9901] 	lookupTimeSig:mean 	6.8
scalar Network.dyn_peer[9901] 	lookupStabilitySig:mean 	0.99220945789582
scalar Network.dyn_peer[9901] 	lookupHopsSig:mean 	67.111111111111
scalar Network.dyn_peer[9902] 	lookupTimeSig:mean 	5.48
scalar Network.dyn_peer[9902] 	lookupStabilitySig:mean 	0.99360114841256
scalar Network.dyn_peer[9902] 	lookupHopsSig:mean 	53.9
scalar Network.dyn_peer[9903] 	lookupTimeSig:mean 	4.6363636363636
scalar Network.dyn_peer[9903] 	lookupStabilitySig:mean 	0.99455698058856
scalar Network.dyn_peer[9903] 	lookupHopsSig:mean 	45.454545454545
scalar Network.dyn_peer[9904] 	lookupTimeSig:mean 	5.4230769230769
scalar Network.dyn_peer[9904] 	lookupStabilitySig:mean 	0.99387075311433
scalar Network.dyn_peer[9904] 	lookupHopsSig:mean 	53.307692307692
scalar Network.dyn_peer[9905] 	lookupTimeSig:mean 	4.36
scalar Network.dyn_peer[9905] 	lookupStabilitySig:mean 	0.99422402046621
scalar Network.dyn_peer[9905] 	lookupHopsSig:mean 	42.8
scalar Network.dyn_peer[9906] 	lookupTimeSig:mean 	4.8714285714286
scalar Network.dyn_peer[9906] 	lookupStabilitySig:mean 	0.99398029901619
scalar Network.dyn_peer[9906] 	lookupHopsSig:mean 	47.857142857143
scalar Network.dyn_peer[9907] 	lookupTimeSig:mean 	5.4285714285714
scalar Network.dyn_peer[9907] 	lookupStabilitySig:mean 	0.99329790323307
scalar Network.dyn_peer[9907] 	lookupHopsSig:mean 	53.428571428571
scalar Network.dyn_peer[9908] 	lookupTimeSig:mean 	5.75
scalar Network.dyn_peer[9908] 	lookupStabilitySig:mean 	0.99281899130438
scalar Network.dyn_peer[9908] 	lookupHopsSig:mean 	56.666666666667
scalar Network.dyn_peer[9909] 	lookupTimeSig:mean 	3.4777777777778
scalar Network.dyn_peer[9909] 	lookupStabilitySig:mean 	0.99558307005403
scalar Network.dyn_peer[9909] 	lookupHopsSig:mean 	33.888888888889
scalar Network.dyn_peer[9910] 	lookupTimeSig:mean 	5.7714285714286
scalar Network.dyn_peer[9910] 	lookupStabilitySig:mean 	0.99311563928911
scalar Network.dyn_peer[9910] 	lookupHopsSig:mean 	56.857142857143
scalar Network.dyn_peer[9911] 	lookupTimeSig:mean 	6.35
scalar Network.dyn_peer[9911] 	lookupStabilitySig:mean 	0.99271616955521
scalar Network.dyn_peer[9911] 	lookupHopsSig:mean 	62.6
scalar Network.dyn_peer[9912] 	lookupTimeSig:mean 	5.1333333333333
scalar Network.dyn_peer[9912] 	lookupStabilitySig:mean 	0.9934958081188
scalar Network.dyn_peer[9912] 	lookupHopsSig:mean 	50.5
scalar Network.dyn_peer[9913] 	lookupTimeSig:mean 	6.125
scalar Network.dyn_peer[9913] 	lookupStabilitySig:mean 	0.99270497099496
scalar Network.dyn_peer[9913] 	lookupHopsSig:mean 	60.375
scalar Network.dyn_peer[9914] 	lookupTimeSig:mean 	4.525
scalar Network.dyn_peer[9914] 	lookupStabilitySig:mean 	0.99387031642254
scalar Network.dyn_peer[9914] 	lookupHopsSig:mean 	44.5
scalar Network.dyn_peer[9915] 	lookupTimeSig:mean 	6.7454545454545
scalar Network.dyn_peer[9915] 	lookupStabilitySig:mean 	0.99253548421389
scalar Network.dyn_peer[9915] 	lookupHopsSig:mean 	66.545454545455
scalar Network.dyn_peer[9916] 	lookupTimeSig:mean 	6.8142857142857
scalar Network.dyn_peer[9916] 	lookupStabilitySig:mean 	0.99185652492036
scalar Network.dyn_peer[9916] 	lookupHopsSig:mean 	67.285714285714
scalar Network.dyn_peer[9917] 	lookupTimeSig:mean 	4.2571428571429
scalar Network.dyn_peer[9917] 	lookupStabilitySig:mean 	0.99462215895099
scalar Network.dyn_peer[9917] 	lookupHopsSig:mean 	41.714285714286
scalar Network.dyn_peer[9918] 	lookupTimeSig:mean 	5.9
scalar Network.dyn_peer[9918] 	lookupStabilitySig:mean 	0.99230607913341
scalar Network.dyn_peer[9918] 	lookupHopsSig:mean 	58.25
scalar Network.dyn_peer[9919] 	lookupTimeSig:mean 	5.84
scalar Network.dyn_peer[9919] 	lookupStabilitySig:mean 	0.99253212269396
scalar Network.dyn_peer[9919] 	lookupHopsSig:mean 	57.6
scalar Network.dyn_peer[9920] 	lookupTimeSig:mean 	6.2333333333333
scalar Network.dyn_peer[9920] 	lookupStabilitySig:mean 	0.99166302227726
scalar Network.dyn_peer[9920] 	lookupHopsSig:mean 	61.666666666667
scalar Network.dyn_peer[9921] 	lookupTimeSig:mean 	5.0142857142857
scalar Network.dyn_peer[9921] 	lookupStabilitySig:mean 	0.99380745303019
scalar Network.dyn_peer[9921] 	lookupHopsSig:mean 	49.285714285714
scalar Network.dyn_peer[9922] 	lookupTimeSig:mean 	4.13
scalar Network.dyn_peer[9922] 	lookupStabilitySig:mean 	0.9949682349863
scalar Network.dyn_peer[9922] 	lookupHopsSig:mean 	40.4
scalar Network.dyn_peer[9923] 	lookupTimeSig:mean 	4.3714285714286
scalar Network.dyn_peer[9923] 	lookupStabilitySig:mean 	0.99445502423415
scalar Network.dyn_peer[9923] 	lookupHopsSig:mean 	42.857142857143
scalar Network.dyn_peer[9924] 	lookupTimeSig:mean 	4.8375
scalar Network.dyn_peer[9924] 	lookupStabilitySig:mean 	0.99406914433348
scalar Network.dyn_peer[9924] 	lookupHopsSig:mean 	47.5
scalar Network.dyn_peer[9925] 	lookupTimeSig:mean 	5.7857142857143
scalar Network.dyn_peer[9925] 	lookupStabilitySig:mean 	0.99293105560355
scalar Network.dyn_peer[9925] 	lookupHopsSig:mean 	57
scalar Network.dyn_peer[9926] 	lookupTimeSig:mean 	4.9333333333333
scalar Network.dyn_peer[9926] 	lookupStabilitySig:mean 	0.99410009137096
scalar Network.dyn_peer[9926] 	lookupHopsSig:mean 	48.444444444444
scalar Network.dyn_peer[9927] 	lookupTimeSig:mean 	4.4857142857143
scalar Network.dyn_peer[9927] 	lookupStabilitySig:mean 	0.99436912688959
scalar Network.dyn_peer[9927] 	lookupHopsSig:mean 	44
scalar Network.dyn_peer[9928] 	lookupTimeSig:mean 	6.2230769230769
scalar Network.dyn_peer[9928] 	lookupStabilitySig:mean 	0.99312283815995
scalar Network.dyn_peer[9928] 	lookupHopsSig:mean 	61.307692307692
scalar Network.dyn_peer[9929] 	lookupTimeSig:mean 	9.875
scalar Network.dyn_peer[9929] 	lookupStabilitySig:mean 	0.98812509520212
scalar Network.dyn_peer[9929] 	lookupHopsSig:mean 	98
scalar Network.dyn_peer[9930] 	lookupTimeSig:mean 	5.9375
scalar Network.dyn_peer[9930] 	lookupStabilitySig:mean 	0.99352313767304
scalar Network.dyn_peer[9930] 	lookupHopsSig:mean 	58.4375
scalar Network.dyn_peer[9931] 	lookupTimeSig:mean 	3.4166666666667
scalar Network.dyn_peer[9931] 	lookupStabilitySig:mean 	0.99587958908038
scalar Network.dyn_peer[9931] 	lookupHopsSig:mean 	33.25
scalar Network.dyn_peer[9932] 	lookupTimeSig:mean 	5.55
scalar Network.dyn_peer[9932] 	lookupStabilitySig:mean 	0.99275915801991
scalar Network.dyn_peer[9932] 	lookupHopsSig:mean 	54.75
scalar Network.dyn_peer[9933] 	lookupTimeSig:mean 	4.38
scalar Network.dyn_peer[9933] 	lookupStabilitySig:mean 	0.99418929303065
scalar Network.dyn_peer[9933] 	lookupHopsSig:mean 	43
scalar Network.dyn_peer[9934] 	lookupTimeSig:mean 	9.8
scalar Network.dyn_peer[9934] 	lookupStabilitySig:mean 	0.98713142471388
scalar Network.dyn_peer[9934] 	lookupHopsSig:mean 	97.5
scalar Network.dyn_peer[9935] 	lookupTimeSig:mean 	6.3272727272727
scalar Network.dyn_peer[9935] 	lookupStabilitySig:mean 	0.99285143449776
scalar Network.dyn_peer[9935] 	lookupHopsSig:mean 	62.363636363636
scalar Network.dyn_peer[9936] 	lookupTimeSig:mean 	5.0333333333333
scalar Network.dyn_peer[9936] 	lookupStabilitySig:mean 	0.99399918087551
scalar Network.dyn_peer[9936] 	lookupHopsSig:mean 	49.444444444444
scalar Network.dyn_peer[9937] 	lookupTimeSig:mean 	8.3
scalar Network.dyn_peer[9937] 	lookupStabilitySig:mean 	0.99095519855618
scalar Network.dyn_peer[9937] 	lookupHopsSig:mean 	82.1
scalar Network.dyn_peer[9938] 	lookupTimeSig:mean 	5.65
scalar Network.dyn_peer[9938] 	lookupStabilitySig:mean 	0.99208783661015
scalar Network.dyn_peer[9938] 	lookupHopsSig:mean 	56
scalar Network.dyn_peer[9939] 	lookupTimeSig:mean 	7.5125
scalar Network.dyn_peer[9939] 	lookupStabilitySig:mean 	0.99133793788496
scalar Network.dyn_peer[9939] 	lookupHopsSig:mean 	74.25
scalar Network.dyn_peer[9940] 	lookupTimeSig:mean 	4.6714285714286
scalar Network.dyn_peer[9940] 	lookupStabilitySig:mean 	0.99419610777737
scalar Network.dyn_peer[9940] 	lookupHopsSig:mean 	45.857142857143
scalar Network.dyn_peer[9941] 	lookupTimeSig:mean 	5.1833333333333
scalar Network.dyn_peer[9941] 	lookupStabilitySig:mean 	0.99403617864785
scalar Network.dyn_peer[9941] 	lookupHopsSig:mean 	50.916666666667
scalar Network.dyn_peer[9942] 	lookupTimeSig:mean 	6.5142857142857
scalar Network.dyn_peer[9942] 	lookupStabilitySig:mean 	0.99223173592639
scalar Network.dyn_peer[9942] 	lookupHopsSig:mean 	64.285714285714
scalar Network.dyn_peer[9943] 	lookupTimeSig:mean 	4.39
scalar Network.dyn_peer[9943] 	lookupStabilitySig:mean 	0.99471204550937
scalar Network.dyn_peer[9943] 	lookupHopsSig:mean 	43
scalar Network.dyn_peer[9944] 	lookupTimeSig:mean 	6.925
scalar Network.dyn_peer[9944] 	lookupStabilitySig:mean 	0.99197691743029
scalar Network.dyn_peer[9944] 	lookupHopsSig:mean 	68.375
scalar Network.dyn_peer[9945] 	lookupTimeSig:mean 	6.575
scalar Network.dyn_peer[9945] 	lookupStabilitySig:mean 	0.99237239040667
scalar Network.dyn_peer[9945] 	lookupHopsSig:mean 	64.875
scalar Network.dyn_peer[9946] 	lookupTimeSig:mean 	4.0375
scalar Network.dyn_peer[9946] 	lookupStabilitySig:mean 	0.99494383102865
scalar Network.dyn_peer[9946] 	lookupHopsSig:mean 	39.5
scalar Network.dyn_peer[9947] 	lookupTimeSig:mean 	6.26
scalar Network.dyn_peer[9947] 	lookupStabilitySig:mean 	0.9920693305321
scalar Network.dyn_peer[9947] 	lookupHopsSig:mean 	61.8
scalar Network.dyn_peer[9948] 	lookupTimeSig:mean 	5.875
scalar Network.dyn_peer[9948] 	lookupStabilitySig:mean 	0.9929774015327
scalar Network.dyn_peer[9948] 	lookupHopsSig:mean 	57.875
scalar Network.dyn_peer[9949] 	lookupTimeSig:mean 	7.4125
scalar Network.dyn_peer[9949] 	lookupStabilitySig:mean 	0.9914584303624
scalar Network.dyn_peer[9949] 	lookupHopsSig:mean 	73.25
scalar Network.dyn_peer[9950] 	lookupTimeSig:mean 	5.95
scalar Network.dyn_peer[9950] 	lookupStabilitySig:mean 	0.99171393550932
scalar Network.dyn_peer[9950] 	lookupHopsSig:mean 	59
scalar Network.dyn_peer[9951] 	lookupTimeSig:mean 	9.95
scalar Network.dyn_peer[9951] 	lookupStabilitySig:mean 	0.98803950520232
scalar Network.dyn_peer[9951] 	lookupHopsSig:mean 	98.75
scalar Network.dyn_peer[9952] 	lookupTimeSig:mean 	4.8857142857143
scalar Network.dyn_peer[9952] 	lookupStabilitySig:mean 	0.99389939063362
scalar Network.dyn_peer[9952] 	lookupHopsSig:mean 	48
scalar Network.dyn_peer[9953] 	lookupTimeSig:mean 	2.6857142857143
scalar Network.dyn_peer[9953] 	lookupStabilitySig:mean 	0.99641602190344
scalar Network.dyn_peer[9953] 	lookupHopsSig:mean 	26
scalar Network.dyn_peer[9954] 	lookupTimeSig:mean 	4.8
scalar Network.dyn_peer[9954] 	lookupStabilitySig:mean 	0.99358871852746
scalar Network.dyn_peer[9954] 	lookupHopsSig:mean 	47.25
scalar Network.dyn_peer[9955] 	lookupTimeSig:mean 	4.425
scalar Network.dyn_peer[9955] 	lookupStabilitySig:mean 	0.99403978459304
scalar Network.dyn_peer[9955] 	lookupHopsSig:mean 	43.5
scalar Network.dyn_peer[9956] 	lookupTimeSig:mean 	7.75
scalar Network.dyn_peer[9956] 	lookupStabilitySig:mean 	0.99135026661679
scalar Network.dyn_peer[9956] 	lookupHopsSig:mean 	76.6
scalar Network.dyn_peer[9957] 	lookupTimeSig:mean 	6.1666666666667
scalar Network.dyn_peer[9957] 	lookupStabilitySig:mean 	0.99190064713669
scalar Network.dyn_peer[9957] 	lookupHopsSig:mean 	61
scalar Network.dyn_peer[9958] 	lookupTimeSig:mean 	7.2333333333333
scalar Network.dyn_peer[9958] 	lookupStabilitySig:mean 	0.99180192603833
scalar Network.dyn_peer[9958] 	lookupHopsSig:mean 	71.444444444444
scalar Network.dyn_peer[9959] 	lookupTimeSig:mean 	6.5428571428571
scalar Network.dyn_peer[9959] 	lookupStabilitySig:mean 	0.99220824916847
scalar Network.dyn_peer[9959] 	lookupHopsSig:mean 	64.571428571429
scalar Network.dyn_peer[9960] 	lookupTimeSig:mean 	4.3125
scalar Network.dyn_peer[9960] 	lookupStabilitySig:mean 	0.99460961276782
scalar Network.dyn_peer[9960] 	lookupHopsSig:mean 	42.25
scalar Network.dyn_peer[9961] 	lookupTimeSig:mean 	5.9875
scalar Network.dyn_peer[9961] 	lookupStabilitySig:mean 	0.99300208182831
scalar Network.dyn_peer[9961] 	lookupHopsSig:mean 	59
scalar Network.dyn_peer[9962] 	lookupTimeSig:mean 	5.8555555555556
scalar Network.dyn_peer[9962] 	lookupStabilitySig:mean 	0.99314952948286
scalar Network.dyn_peer[9962] 	lookupHopsSig:mean 	57.666666666667
scalar Network.dyn_peer[9963] 	lookupTimeSig:mean 	6.175
scalar Network.dyn_peer[9963] 	lookupStabilitySig:mean 	0.99290624354035
scalar Network.dyn_peer[9963] 	lookupHopsSig:mean 	60.875
scalar Network.dyn_peer[9964] 	lookupTimeSig:mean 	5.1333333333333
scalar Network.dyn_peer[9964] 	lookupStabilitySig:mean 	0.99389166315086
scalar Network.dyn_peer[9964] 	lookupHopsSig:mean 	50.444444444444
scalar Network.dyn_peer[9965] 	lookupTimeSig:mean 	5
scalar Network.dyn_peer[9965] 	lookupStabilitySig:mean 	0.99354207227007
scalar Network.dyn_peer[9965] 	lookupHopsSig:mean 	49.2
scalar Network.dyn_peer[9966] 	lookupTimeSig:mean 	5.13
scalar Network.dyn_peer[9966] 	lookupStabilitySig:mean 	0.99397282120917
scalar Network.dyn_peer[9966] 	lookupHopsSig:mean 	50.4
scalar Network.dyn_peer[9967] 	lookupTimeSig:mean 	16.85
scalar Network.dyn_peer[9967] 	lookupStabilitySig:mean 	0.97980585461482
scalar Network.dyn_peer[9967] 	lookupHopsSig:mean 	168
scalar Network.dyn_peer[9968] 	lookupTimeSig:mean 	3.8571428571429
scalar Network.dyn_peer[9968] 	lookupStabilitySig:mean 	0.9950424125917
scalar Network.dyn_peer[9968] 	lookupHopsSig:mean 	37.714285714286
scalar Network.dyn_peer[9969] 	lookupTimeSig:mean 	7.7666666666667
scalar Network.dyn_peer[9969] 	lookupStabilitySig:mean 	0.98997579623635
scalar Network.dyn_peer[9969] 	lookupHopsSig:mean 	77
scalar Network.dyn_peer[9970] 	lookupTimeSig:mean 	7.6285714285714
scalar Network.dyn_peer[9970] 	lookupStabilitySig:mean 	0.99110415458147
scalar Network.dyn_peer[9970] 	lookupHopsSig:mean 	75.428571428571
scalar Network.dyn_peer[9971] 	lookupTimeSig:mean 	3.825
scalar Network.dyn_peer[9971] 	lookupStabilitySig:mean 	0.99481582542649
scalar Network.dyn_peer[9971] 	lookupHopsSig:mean 	37.5
scalar Network.dyn_peer[9972] 	lookupTimeSig:mean 	5.55
scalar Network.dyn_peer[9972] 	lookupStabilitySig:mean 	0.99271661107196
scalar Network.dyn_peer[9972] 	lookupHopsSig:mean 	54.75
scalar Network.dyn_peer[9973] 	lookupTimeSig:mean 	3
scalar Network.dyn_peer[9973] 	lookupStabilitySig:mean 	0.99577721895184
scalar Network.dyn_peer[9973] 	lookupHopsSig:mean 	29.333333333333
scalar Network.dyn_peer[9974] 	lookupTimeSig:mean 	7.0571428571429
scalar Network.dyn_peer[9974] 	lookupStabilitySig:mean 	0.99169944339831
scalar Network.dyn_peer[9974] 	lookupHopsSig:mean 	69.714285714286
scalar Network.dyn_peer[9975] 	lookupTimeSig:mean 	6.9125
scalar Network.dyn_peer[9975] 	lookupStabilitySig:mean 	0.99196011549793
scalar Network.dyn_peer[9975] 	lookupHopsSig:mean 	68.25
scalar Network.dyn_peer[9976] 	lookupTimeSig:mean 	2.9875
scalar Network.dyn_peer[9976] 	lookupStabilitySig:mean 	0.99611439689761
scalar Network.dyn_peer[9976] 	lookupHopsSig:mean 	29
scalar Network.dyn_peer[9977] 	lookupTimeSig:mean 	3.4125
scalar Network.dyn_peer[9977] 	lookupStabilitySig:mean 	0.99561273885774
scalar Network.dyn_peer[9977] 	lookupHopsSig:mean 	33.25
scalar Network.dyn_peer[9978] 	lookupTimeSig:mean 	4.1714285714286
scalar Network.dyn_peer[9978] 	lookupStabilitySig:mean 	0.99468075001745
scalar Network.dyn_peer[9978] 	lookupHopsSig:mean 	40.857142857143
scalar Network.dyn_peer[9979] 	lookupTimeSig:mean 	7.76
scalar Network.dyn_peer[9979] 	lookupStabilitySig:mean 	0.99058326040395
scalar Network.dyn_peer[9979] 	lookupHopsSig:mean 	76.8
scalar Network.dyn_peer[9980] 	lookupTimeSig:mean 	5.25
scalar Network.dyn_peer[9980] 	lookupStabilitySig:mean 	0.99369060489698
scalar Network.dyn_peer[9980] 	lookupHopsSig:mean 	51.625
scalar Network.dyn_peer[9981] 	lookupTimeSig:mean 	4.7363636363636
scalar Network.dyn_peer[9981] 	lookupStabilitySig:mean 	0.99446828516243
scalar Network.dyn_peer[9981] 	lookupHopsSig:mean 	46.454545454545
scalar Network.dyn_peer[9982] 	lookupTimeSig:mean 	3.25
scalar Network.dyn_peer[9982] 	lookupStabilitySig:mean 	0.9958243326837
scalar Network.dyn_peer[9982] 	lookupHopsSig:mean 	31.625
scalar Network.dyn_peer[9983] 	lookupTimeSig:mean 	6.3142857142857
scalar Network.dyn_peer[9983] 	lookupStabilitySig:mean 	0.99247865847844
scalar Network.dyn_peer[9983] 	lookupHopsSig:mean 	62.285714285714
scalar Network.dyn_peer[9984] 	lookupTimeSig:mean 	5
scalar Network.dyn_peer[9984] 	lookupStabilitySig:mean 	0.99367183287783
scalar Network.dyn_peer[9984] 	lookupHopsSig:mean 	49.166666666667
scalar Network.dyn_peer[9985] 	lookupTimeSig:mean 	5.35
scalar Network.dyn_peer[9985] 	lookupStabilitySig:mean 	0.99390532635152
scalar Network.dyn_peer[9985] 	lookupHopsSig:mean 	52.583333333333
scalar Network.dyn_peer[9986] 	lookupTimeSig:mean 	3.59
scalar Network.dyn_peer[9986] 	lookupStabilitySig:mean 	0.99557278556749
scalar Network.dyn_peer[9986] 	lookupHopsSig:mean 	35
scalar Network.dyn_peer[9987] 	lookupTimeSig:mean 	3.8571428571429
scalar Network.dyn_peer[9987] 	lookupStabilitySig:mean 	0.99506497374802
scalar Network.dyn_peer[9987] 	lookupHopsSig:mean 	37.714285714286
scalar Network.dyn_peer[9988] 	lookupTimeSig:mean 	6.9833333333333
scalar Network.dyn_peer[9988] 	lookupStabilitySig:mean 	0.99154803568187
scalar Network.dyn_peer[9988] 	lookupHopsSig:mean 	69
scalar Network.dyn_peer[9989] 	lookupTimeSig:mean 	3.45
scalar Network.dyn_peer[9989] 	lookupStabilitySig:mean 	0.99505030352157
scalar Network.dyn_peer[9989] 	lookupHopsSig:mean 	34
scalar Network.dyn_peer[9990] 	lookupTimeSig:mean 	4.01
scalar Network.dyn_peer[9990] 	lookupStabilitySig:mean 	0.99512303185184
scalar Network.dyn_peer[9990] 	lookupHopsSig:mean 	39.2
scalar Network.dyn_peer[9991] 	lookupTimeSig:mean 	5.1625
scalar Network.dyn_peer[9991] 	lookupStabilitySig:mean 	0.9937339964963
scalar Network.dyn_peer[9991] 	lookupHopsSig:mean 	50.75
scalar Network.dyn_peer[9992] 	lookupTimeSig:mean 	5.0857142857143
scalar Network.dyn_peer[9992] 	lookupStabilitySig:mean 	0.99369648757524
scalar Network.dyn_peer[9992] 	lookupHopsSig:mean 	50
scalar Network.dyn_peer[9993] 	lookupTimeSig:mean 	2.15
scalar Network.dyn_peer[9993] 	lookupStabilitySig:mean 	0.99688232888002
scalar Network.dyn_peer[9993] 	lookupHopsSig:mean 	21
scalar Network.dyn_peer[9994] 	lookupTimeSig:mean 	7.55
scalar Network.dyn_peer[9994] 	lookupStabilitySig:mean 	0.99049993103836
scalar Network.dyn_peer[9994] 	lookupHopsSig:mean 	74.75
scalar Network.dyn_peer[9995] 	lookupTimeSig:mean 	6.4
scalar Network.dyn_peer[9995] 	lookupStabilitySig:mean 	0.99119103210978
scalar Network.dyn_peer[9995] 	lookupHopsSig:mean 	63.5
scalar Network.dyn_peer[9996] 	lookupTimeSig:mean 	5.25
scalar Network.dyn_peer[9996] 	lookupStabilitySig:mean 	0.99411637395886
scalar Network.dyn_peer[9996] 	lookupHopsSig:mean 	51.571428571429
scalar Network.dyn_peer[9997] 	lookupTimeSig:mean 	7.0375
scalar Network.dyn_peer[9997] 	lookupStabilitySig:mean 	0.99191054241965
scalar Network.dyn_peer[9997] 	lookupHopsSig:mean 	69.5
scalar Network.dyn_peer[9998] 	lookupTimeSig:mean 	5.2818181818182
scalar Network.dyn_peer[9998] 	lookupStabilitySig:mean 	0.99391853116686
scalar Network.dyn_peer[9998] 	lookupHopsSig:mean 	51.909090909091
scalar Network.dyn_peer[9999] 	lookupTimeSig:mean 	4.4
scalar Network.dyn_peer[9999] 	lookupStabilitySig:mean 	0.99377329577692
scalar Network.dyn_peer[9999] 	lookupHopsSig:mean 	43.5
scalar Network.churner 	inGoingSizeSig:mean 	2130.5144485551
