version 2
run Stability2-106-20130528-11:47:37-24168
attr configname Stability2
attr datetime 20130528-11:47:37
attr experiment Stability2
attr inifile omnetpp.ini
attr iterationvars $0=1000
attr iterationvars2 "$0=1000, $repetition=6"
attr measurement $0=1000
attr network Network
attr processid 24168
attr repetition 6
attr replication #6
attr resultdir results
attr runnumber 106
attr seedset 106

scalar Network.dyn_peer[0] 	lookupTimeSig:mean 	3.5190476190476
scalar Network.dyn_peer[0] 	lookupStabilitySig:mean 	0.88712122637246
scalar Network.dyn_peer[0] 	lookupHopsSig:mean 	34.238095238095
scalar Network.dyn_peer[1] 	lookupTimeSig:mean 	3.89
scalar Network.dyn_peer[1] 	lookupStabilitySig:mean 	0.88048281826777
scalar Network.dyn_peer[1] 	lookupHopsSig:mean 	37.95
scalar Network.dyn_peer[2] 	lookupTimeSig:mean 	4.2818181818182
scalar Network.dyn_peer[2] 	lookupStabilitySig:mean 	0.89086234340952
scalar Network.dyn_peer[2] 	lookupHopsSig:mean 	41.863636363636
scalar Network.dyn_peer[3] 	lookupTimeSig:mean 	2.2285714285714
scalar Network.dyn_peer[3] 	lookupStabilitySig:mean 	0.84366578811647
scalar Network.dyn_peer[3] 	lookupHopsSig:mean 	21.357142857143
scalar Network.dyn_peer[4] 	lookupTimeSig:mean 	3.6785714285714
scalar Network.dyn_peer[4] 	lookupStabilitySig:mean 	0.83943036145398
scalar Network.dyn_peer[4] 	lookupHopsSig:mean 	35.857142857143
scalar Network.dyn_peer[5] 	lookupTimeSig:mean 	3.1473684210526
scalar Network.dyn_peer[5] 	lookupStabilitySig:mean 	0.90563708836654
scalar Network.dyn_peer[5] 	lookupHopsSig:mean 	30.526315789474
scalar Network.dyn_peer[6] 	lookupTimeSig:mean 	4.54
scalar Network.dyn_peer[6] 	lookupStabilitySig:mean 	0.89384178204928
scalar Network.dyn_peer[6] 	lookupHopsSig:mean 	44.45
scalar Network.dyn_peer[7] 	lookupTimeSig:mean 	5.6538461538462
scalar Network.dyn_peer[7] 	lookupStabilitySig:mean 	0.83792227460071
scalar Network.dyn_peer[7] 	lookupHopsSig:mean 	55.615384615385
scalar Network.dyn_peer[8] 	lookupTimeSig:mean 	4.3444444444444
scalar Network.dyn_peer[8] 	lookupStabilitySig:mean 	0.8817679948665
scalar Network.dyn_peer[8] 	lookupHopsSig:mean 	42.5
scalar Network.dyn_peer[9] 	lookupTimeSig:mean 	3.1052631578947
scalar Network.dyn_peer[9] 	lookupStabilitySig:mean 	0.88974330557118
scalar Network.dyn_peer[9] 	lookupHopsSig:mean 	30.105263157895
scalar Network.dyn_peer[10] 	lookupTimeSig:mean 	3.632
scalar Network.dyn_peer[10] 	lookupStabilitySig:mean 	0.90148556740023
scalar Network.dyn_peer[10] 	lookupHopsSig:mean 	35.36
scalar Network.dyn_peer[11] 	lookupTimeSig:mean 	3.5846153846154
scalar Network.dyn_peer[11] 	lookupStabilitySig:mean 	0.865177662076
scalar Network.dyn_peer[11] 	lookupHopsSig:mean 	34.923076923077
scalar Network.dyn_peer[12] 	lookupTimeSig:mean 	2.86875
scalar Network.dyn_peer[12] 	lookupStabilitySig:mean 	0.87504883896327
scalar Network.dyn_peer[12] 	lookupHopsSig:mean 	27.75
scalar Network.dyn_peer[13] 	lookupTimeSig:mean 	2.904347826087
scalar Network.dyn_peer[13] 	lookupStabilitySig:mean 	0.90294478252611
scalar Network.dyn_peer[13] 	lookupHopsSig:mean 	28.086956521739
scalar Network.dyn_peer[14] 	lookupTimeSig:mean 	2.7421052631579
scalar Network.dyn_peer[14] 	lookupStabilitySig:mean 	0.88467732672334
scalar Network.dyn_peer[14] 	lookupHopsSig:mean 	26.473684210526
scalar Network.dyn_peer[15] 	lookupTimeSig:mean 	2.685
scalar Network.dyn_peer[15] 	lookupStabilitySig:mean 	0.89457093479577
scalar Network.dyn_peer[15] 	lookupHopsSig:mean 	25.9
scalar Network.dyn_peer[16] 	lookupTimeSig:mean 	2
scalar Network.dyn_peer[16] 	lookupStabilitySig:mean 	0.87818633934616
scalar Network.dyn_peer[16] 	lookupHopsSig:mean 	19.071428571429
scalar Network.dyn_peer[17] 	lookupTimeSig:mean 	2.765
scalar Network.dyn_peer[17] 	lookupStabilitySig:mean 	0.90357713553822
scalar Network.dyn_peer[17] 	lookupHopsSig:mean 	26.7
scalar Network.dyn_peer[18] 	lookupTimeSig:mean 	3.2190476190476
scalar Network.dyn_peer[18] 	lookupStabilitySig:mean 	0.90149988938079
scalar Network.dyn_peer[18] 	lookupHopsSig:mean 	31.238095238095
scalar Network.dyn_peer[19] 	lookupTimeSig:mean 	3.00625
scalar Network.dyn_peer[19] 	lookupStabilitySig:mean 	0.88086502533406
scalar Network.dyn_peer[19] 	lookupHopsSig:mean 	29.125
scalar Network.dyn_peer[20] 	lookupTimeSig:mean 	3.1173913043478
scalar Network.dyn_peer[20] 	lookupStabilitySig:mean 	0.91771855078759
scalar Network.dyn_peer[20] 	lookupHopsSig:mean 	30.217391304348
scalar Network.dyn_peer[21] 	lookupTimeSig:mean 	2.604
scalar Network.dyn_peer[21] 	lookupStabilitySig:mean 	0.91627250783145
scalar Network.dyn_peer[21] 	lookupHopsSig:mean 	25.08
scalar Network.dyn_peer[22] 	lookupTimeSig:mean 	2.9380952380952
scalar Network.dyn_peer[22] 	lookupStabilitySig:mean 	0.90302097586738
scalar Network.dyn_peer[22] 	lookupHopsSig:mean 	28.428571428571
scalar Network.dyn_peer[23] 	lookupTimeSig:mean 	4.7916666666667
scalar Network.dyn_peer[23] 	lookupStabilitySig:mean 	0.91234618515591
scalar Network.dyn_peer[23] 	lookupHopsSig:mean 	46.958333333333
scalar Network.dyn_peer[24] 	lookupTimeSig:mean 	2.2285714285714
scalar Network.dyn_peer[24] 	lookupStabilitySig:mean 	0.84969686394158
scalar Network.dyn_peer[24] 	lookupHopsSig:mean 	21.357142857143
scalar Network.dyn_peer[25] 	lookupTimeSig:mean 	3.6375
scalar Network.dyn_peer[25] 	lookupStabilitySig:mean 	0.9193122471188
scalar Network.dyn_peer[25] 	lookupHopsSig:mean 	35.4375
scalar Network.dyn_peer[26] 	lookupTimeSig:mean 	2.2833333333333
scalar Network.dyn_peer[26] 	lookupStabilitySig:mean 	0.89751954967829
scalar Network.dyn_peer[26] 	lookupHopsSig:mean 	21.888888888889
scalar Network.dyn_peer[27] 	lookupTimeSig:mean 	2.4647058823529
scalar Network.dyn_peer[27] 	lookupStabilitySig:mean 	0.90869955660994
scalar Network.dyn_peer[27] 	lookupHopsSig:mean 	23.705882352941
scalar Network.dyn_peer[28] 	lookupTimeSig:mean 	1.7818181818182
scalar Network.dyn_peer[28] 	lookupStabilitySig:mean 	0.83967822544615
scalar Network.dyn_peer[28] 	lookupHopsSig:mean 	16.909090909091
scalar Network.dyn_peer[29] 	lookupTimeSig:mean 	3.2235294117647
scalar Network.dyn_peer[29] 	lookupStabilitySig:mean 	0.90983950730194
scalar Network.dyn_peer[29] 	lookupHopsSig:mean 	31.294117647059
scalar Network.dyn_peer[30] 	lookupTimeSig:mean 	3.3052631578947
scalar Network.dyn_peer[30] 	lookupStabilitySig:mean 	0.89691450762697
scalar Network.dyn_peer[30] 	lookupHopsSig:mean 	32.105263157895
scalar Network.dyn_peer[31] 	lookupTimeSig:mean 	3.2352941176471
scalar Network.dyn_peer[31] 	lookupStabilitySig:mean 	0.90442352292731
scalar Network.dyn_peer[31] 	lookupHopsSig:mean 	31.411764705882
scalar Network.dyn_peer[32] 	lookupTimeSig:mean 	3.1333333333333
scalar Network.dyn_peer[32] 	lookupStabilitySig:mean 	0.90477459933165
scalar Network.dyn_peer[32] 	lookupHopsSig:mean 	30.380952380952
scalar Network.dyn_peer[33] 	lookupTimeSig:mean 	3.8294117647059
scalar Network.dyn_peer[33] 	lookupStabilitySig:mean 	0.90340645025101
scalar Network.dyn_peer[33] 	lookupHopsSig:mean 	37.352941176471
scalar Network.dyn_peer[34] 	lookupTimeSig:mean 	3.37
scalar Network.dyn_peer[34] 	lookupStabilitySig:mean 	0.94294143796433
scalar Network.dyn_peer[34] 	lookupHopsSig:mean 	32.733333333333
scalar Network.dyn_peer[35] 	lookupTimeSig:mean 	3.4176470588235
scalar Network.dyn_peer[35] 	lookupStabilitySig:mean 	0.93378926705405
scalar Network.dyn_peer[35] 	lookupHopsSig:mean 	33.235294117647
scalar Network.dyn_peer[36] 	lookupTimeSig:mean 	3.1352941176471
scalar Network.dyn_peer[36] 	lookupStabilitySig:mean 	0.88322119012146
scalar Network.dyn_peer[36] 	lookupHopsSig:mean 	30.411764705882
scalar Network.dyn_peer[37] 	lookupTimeSig:mean 	4.1466666666667
scalar Network.dyn_peer[37] 	lookupStabilitySig:mean 	0.90712821176276
scalar Network.dyn_peer[37] 	lookupHopsSig:mean 	40.533333333333
scalar Network.dyn_peer[38] 	lookupTimeSig:mean 	2.415
scalar Network.dyn_peer[38] 	lookupStabilitySig:mean 	0.90396965454565
scalar Network.dyn_peer[38] 	lookupHopsSig:mean 	23.2
scalar Network.dyn_peer[39] 	lookupTimeSig:mean 	3.808
scalar Network.dyn_peer[39] 	lookupStabilitySig:mean 	0.92636281890795
scalar Network.dyn_peer[39] 	lookupHopsSig:mean 	37.12
scalar Network.dyn_peer[40] 	lookupTimeSig:mean 	3.3857142857143
scalar Network.dyn_peer[40] 	lookupStabilitySig:mean 	0.88906038223234
scalar Network.dyn_peer[40] 	lookupHopsSig:mean 	32.928571428571
scalar Network.dyn_peer[41] 	lookupTimeSig:mean 	3.63
scalar Network.dyn_peer[41] 	lookupStabilitySig:mean 	0.93489964919087
scalar Network.dyn_peer[41] 	lookupHopsSig:mean 	35.333333333333
scalar Network.dyn_peer[42] 	lookupTimeSig:mean 	3.556
scalar Network.dyn_peer[42] 	lookupStabilitySig:mean 	0.94490175193176
scalar Network.dyn_peer[42] 	lookupHopsSig:mean 	34.6
scalar Network.dyn_peer[43] 	lookupTimeSig:mean 	3.2157894736842
scalar Network.dyn_peer[43] 	lookupStabilitySig:mean 	0.9103585242931
scalar Network.dyn_peer[43] 	lookupHopsSig:mean 	31.210526315789
scalar Network.dyn_peer[44] 	lookupTimeSig:mean 	2.0913043478261
scalar Network.dyn_peer[44] 	lookupStabilitySig:mean 	0.91936782426606
scalar Network.dyn_peer[44] 	lookupHopsSig:mean 	19.95652173913
scalar Network.dyn_peer[45] 	lookupTimeSig:mean 	2.7461538461538
scalar Network.dyn_peer[45] 	lookupStabilitySig:mean 	0.88706592685328
scalar Network.dyn_peer[45] 	lookupHopsSig:mean 	26.538461538462
scalar Network.dyn_peer[46] 	lookupTimeSig:mean 	3.5
scalar Network.dyn_peer[46] 	lookupStabilitySig:mean 	0.93071918907851
scalar Network.dyn_peer[46] 	lookupHopsSig:mean 	34.037037037037
scalar Network.dyn_peer[47] 	lookupTimeSig:mean 	2.625
scalar Network.dyn_peer[47] 	lookupStabilitySig:mean 	0.92046325045521
scalar Network.dyn_peer[47] 	lookupHopsSig:mean 	25.291666666667
scalar Network.dyn_peer[48] 	lookupTimeSig:mean 	3.3555555555556
scalar Network.dyn_peer[48] 	lookupStabilitySig:mean 	0.90835941722617
scalar Network.dyn_peer[48] 	lookupHopsSig:mean 	32.611111111111
scalar Network.dyn_peer[49] 	lookupTimeSig:mean 	3.71
scalar Network.dyn_peer[49] 	lookupStabilitySig:mean 	0.91054678284563
scalar Network.dyn_peer[49] 	lookupHopsSig:mean 	36.15
scalar Network.dyn_peer[50] 	lookupTimeSig:mean 	2.6722222222222
scalar Network.dyn_peer[50] 	lookupStabilitySig:mean 	0.92275937716477
scalar Network.dyn_peer[50] 	lookupHopsSig:mean 	25.777777777778
scalar Network.dyn_peer[51] 	lookupTimeSig:mean 	3.0421052631579
scalar Network.dyn_peer[51] 	lookupStabilitySig:mean 	0.90737720257848
scalar Network.dyn_peer[51] 	lookupHopsSig:mean 	29.473684210526
scalar Network.dyn_peer[52] 	lookupTimeSig:mean 	3.2333333333333
scalar Network.dyn_peer[52] 	lookupStabilitySig:mean 	0.91872066720389
scalar Network.dyn_peer[52] 	lookupHopsSig:mean 	31.4
scalar Network.dyn_peer[53] 	lookupTimeSig:mean 	3.028
scalar Network.dyn_peer[53] 	lookupStabilitySig:mean 	0.921818864448
scalar Network.dyn_peer[53] 	lookupHopsSig:mean 	29.32
scalar Network.dyn_peer[54] 	lookupTimeSig:mean 	3.3681818181818
scalar Network.dyn_peer[54] 	lookupStabilitySig:mean 	0.93143031569409
scalar Network.dyn_peer[54] 	lookupHopsSig:mean 	32.727272727273
scalar Network.dyn_peer[55] 	lookupTimeSig:mean 	2.7642857142857
scalar Network.dyn_peer[55] 	lookupStabilitySig:mean 	0.88030961581639
scalar Network.dyn_peer[55] 	lookupHopsSig:mean 	26.714285714286
scalar Network.dyn_peer[56] 	lookupTimeSig:mean 	2.9380952380952
scalar Network.dyn_peer[56] 	lookupStabilitySig:mean 	0.91269084202594
scalar Network.dyn_peer[56] 	lookupHopsSig:mean 	28.428571428571
scalar Network.dyn_peer[57] 	lookupTimeSig:mean 	3.21
scalar Network.dyn_peer[57] 	lookupStabilitySig:mean 	0.85475321747363
scalar Network.dyn_peer[57] 	lookupHopsSig:mean 	31.2
scalar Network.dyn_peer[58] 	lookupTimeSig:mean 	3.42
scalar Network.dyn_peer[58] 	lookupStabilitySig:mean 	0.91069797913078
scalar Network.dyn_peer[58] 	lookupHopsSig:mean 	33.25
scalar Network.dyn_peer[59] 	lookupTimeSig:mean 	3.225
scalar Network.dyn_peer[59] 	lookupStabilitySig:mean 	0.94739684873327
scalar Network.dyn_peer[59] 	lookupHopsSig:mean 	31.285714285714
scalar Network.dyn_peer[60] 	lookupTimeSig:mean 	4.0333333333333
scalar Network.dyn_peer[60] 	lookupStabilitySig:mean 	0.91781905140831
scalar Network.dyn_peer[60] 	lookupHopsSig:mean 	39.388888888889
scalar Network.dyn_peer[61] 	lookupTimeSig:mean 	3.108
scalar Network.dyn_peer[61] 	lookupStabilitySig:mean 	0.94282137947157
scalar Network.dyn_peer[61] 	lookupHopsSig:mean 	30.12
scalar Network.dyn_peer[62] 	lookupTimeSig:mean 	3.4473684210526
scalar Network.dyn_peer[62] 	lookupStabilitySig:mean 	0.9331900855943
scalar Network.dyn_peer[62] 	lookupHopsSig:mean 	33.526315789474
scalar Network.dyn_peer[63] 	lookupTimeSig:mean 	3.66
scalar Network.dyn_peer[63] 	lookupStabilitySig:mean 	0.9127879497828
scalar Network.dyn_peer[63] 	lookupHopsSig:mean 	35.65
scalar Network.dyn_peer[64] 	lookupTimeSig:mean 	1.7684210526316
scalar Network.dyn_peer[64] 	lookupStabilitySig:mean 	0.92865626886487
scalar Network.dyn_peer[64] 	lookupHopsSig:mean 	16.736842105263
scalar Network.dyn_peer[65] 	lookupTimeSig:mean 	3.3434782608696
scalar Network.dyn_peer[65] 	lookupStabilitySig:mean 	0.93418131456913
scalar Network.dyn_peer[65] 	lookupHopsSig:mean 	32.478260869565
scalar Network.dyn_peer[66] 	lookupTimeSig:mean 	4.3333333333333
scalar Network.dyn_peer[66] 	lookupStabilitySig:mean 	0.92851635687319
scalar Network.dyn_peer[66] 	lookupHopsSig:mean 	42.380952380952
scalar Network.dyn_peer[67] 	lookupTimeSig:mean 	2.0473684210526
scalar Network.dyn_peer[67] 	lookupStabilitySig:mean 	0.9132335949199
scalar Network.dyn_peer[67] 	lookupHopsSig:mean 	19.526315789474
scalar Network.dyn_peer[68] 	lookupTimeSig:mean 	3.5434782608696
scalar Network.dyn_peer[68] 	lookupStabilitySig:mean 	0.93994720175397
scalar Network.dyn_peer[68] 	lookupHopsSig:mean 	34.478260869565
scalar Network.dyn_peer[69] 	lookupTimeSig:mean 	4.1681818181818
scalar Network.dyn_peer[69] 	lookupStabilitySig:mean 	0.92245258704167
scalar Network.dyn_peer[69] 	lookupHopsSig:mean 	40.727272727273
scalar Network.dyn_peer[70] 	lookupTimeSig:mean 	3.5705882352941
scalar Network.dyn_peer[70] 	lookupStabilitySig:mean 	0.91019479223948
scalar Network.dyn_peer[70] 	lookupHopsSig:mean 	34.764705882353
scalar Network.dyn_peer[71] 	lookupTimeSig:mean 	3.4571428571429
scalar Network.dyn_peer[71] 	lookupStabilitySig:mean 	0.92906162904442
scalar Network.dyn_peer[71] 	lookupHopsSig:mean 	33.619047619048
scalar Network.dyn_peer[72] 	lookupTimeSig:mean 	3.7208333333333
scalar Network.dyn_peer[72] 	lookupStabilitySig:mean 	0.93090607445144
scalar Network.dyn_peer[72] 	lookupHopsSig:mean 	36.25
scalar Network.dyn_peer[73] 	lookupTimeSig:mean 	2.8521739130435
scalar Network.dyn_peer[73] 	lookupStabilitySig:mean 	0.95558451566562
scalar Network.dyn_peer[73] 	lookupHopsSig:mean 	27.565217391304
scalar Network.dyn_peer[74] 	lookupTimeSig:mean 	2.7210526315789
scalar Network.dyn_peer[74] 	lookupStabilitySig:mean 	0.92806079937758
scalar Network.dyn_peer[74] 	lookupHopsSig:mean 	26.263157894737
scalar Network.dyn_peer[75] 	lookupTimeSig:mean 	4.6068965517241
scalar Network.dyn_peer[75] 	lookupStabilitySig:mean 	0.95501767351003
scalar Network.dyn_peer[75] 	lookupHopsSig:mean 	45.103448275862
scalar Network.dyn_peer[76] 	lookupTimeSig:mean 	2.36875
scalar Network.dyn_peer[76] 	lookupStabilitySig:mean 	0.93196337369591
scalar Network.dyn_peer[76] 	lookupHopsSig:mean 	22.75
scalar Network.dyn_peer[77] 	lookupTimeSig:mean 	3.0266666666667
scalar Network.dyn_peer[77] 	lookupStabilitySig:mean 	0.91963695281496
scalar Network.dyn_peer[77] 	lookupHopsSig:mean 	29.333333333333
scalar Network.dyn_peer[78] 	lookupTimeSig:mean 	3.2347826086957
scalar Network.dyn_peer[78] 	lookupStabilitySig:mean 	0.93640164473175
scalar Network.dyn_peer[78] 	lookupHopsSig:mean 	31.391304347826
scalar Network.dyn_peer[79] 	lookupTimeSig:mean 	2.6838709677419
scalar Network.dyn_peer[79] 	lookupStabilitySig:mean 	0.96528850906273
scalar Network.dyn_peer[79] 	lookupHopsSig:mean 	25.870967741935
scalar Network.dyn_peer[80] 	lookupTimeSig:mean 	3.1444444444444
scalar Network.dyn_peer[80] 	lookupStabilitySig:mean 	0.9208257172205
scalar Network.dyn_peer[80] 	lookupHopsSig:mean 	30.5
scalar Network.dyn_peer[81] 	lookupTimeSig:mean 	2.9611111111111
scalar Network.dyn_peer[81] 	lookupStabilitySig:mean 	0.94053935083664
scalar Network.dyn_peer[81] 	lookupHopsSig:mean 	28.666666666667
scalar Network.dyn_peer[82] 	lookupTimeSig:mean 	2.5857142857143
scalar Network.dyn_peer[82] 	lookupStabilitySig:mean 	0.94720904564574
scalar Network.dyn_peer[82] 	lookupHopsSig:mean 	24.904761904762
scalar Network.dyn_peer[83] 	lookupTimeSig:mean 	2.4944444444444
scalar Network.dyn_peer[83] 	lookupStabilitySig:mean 	0.9284155143994
scalar Network.dyn_peer[83] 	lookupHopsSig:mean 	24
scalar Network.dyn_peer[84] 	lookupTimeSig:mean 	2.9606060606061
scalar Network.dyn_peer[84] 	lookupStabilitySig:mean 	0.95545345368428
scalar Network.dyn_peer[84] 	lookupHopsSig:mean 	28.636363636364
scalar Network.dyn_peer[85] 	lookupTimeSig:mean 	3.0518518518519
scalar Network.dyn_peer[85] 	lookupStabilitySig:mean 	0.94415849155781
scalar Network.dyn_peer[85] 	lookupHopsSig:mean 	29.555555555556
scalar Network.dyn_peer[86] 	lookupTimeSig:mean 	1.2733333333333
scalar Network.dyn_peer[86] 	lookupStabilitySig:mean 	0.91453029524225
scalar Network.dyn_peer[86] 	lookupHopsSig:mean 	11.8
scalar Network.dyn_peer[87] 	lookupTimeSig:mean 	3.5296296296296
scalar Network.dyn_peer[87] 	lookupStabilitySig:mean 	0.95653852413805
scalar Network.dyn_peer[87] 	lookupHopsSig:mean 	34.333333333333
scalar Network.dyn_peer[88] 	lookupTimeSig:mean 	3.6896551724138
scalar Network.dyn_peer[88] 	lookupStabilitySig:mean 	0.95156212670102
scalar Network.dyn_peer[88] 	lookupHopsSig:mean 	35.931034482759
scalar Network.dyn_peer[89] 	lookupTimeSig:mean 	3.2576923076923
scalar Network.dyn_peer[89] 	lookupStabilitySig:mean 	0.94760103469106
scalar Network.dyn_peer[89] 	lookupHopsSig:mean 	31.615384615385
scalar Network.dyn_peer[90] 	lookupTimeSig:mean 	3.2923076923077
scalar Network.dyn_peer[90] 	lookupStabilitySig:mean 	0.90852866579707
scalar Network.dyn_peer[90] 	lookupHopsSig:mean 	32
scalar Network.dyn_peer[91] 	lookupTimeSig:mean 	3.6347826086957
scalar Network.dyn_peer[91] 	lookupStabilitySig:mean 	0.94793214480919
scalar Network.dyn_peer[91] 	lookupHopsSig:mean 	35.391304347826
scalar Network.dyn_peer[92] 	lookupTimeSig:mean 	3.7666666666667
scalar Network.dyn_peer[92] 	lookupStabilitySig:mean 	0.9347856122823
scalar Network.dyn_peer[92] 	lookupHopsSig:mean 	36.714285714286
scalar Network.dyn_peer[93] 	lookupTimeSig:mean 	4.3
scalar Network.dyn_peer[93] 	lookupStabilitySig:mean 	0.94481182953014
scalar Network.dyn_peer[93] 	lookupHopsSig:mean 	42.058823529412
scalar Network.dyn_peer[94] 	lookupTimeSig:mean 	2.9636363636364
scalar Network.dyn_peer[94] 	lookupStabilitySig:mean 	0.95330501740417
scalar Network.dyn_peer[94] 	lookupHopsSig:mean 	28.681818181818
scalar Network.dyn_peer[95] 	lookupTimeSig:mean 	3.9833333333333
scalar Network.dyn_peer[95] 	lookupStabilitySig:mean 	0.93140557577782
scalar Network.dyn_peer[95] 	lookupHopsSig:mean 	38.888888888889
scalar Network.dyn_peer[96] 	lookupTimeSig:mean 	2.55
scalar Network.dyn_peer[96] 	lookupStabilitySig:mean 	0.89192049349658
scalar Network.dyn_peer[96] 	lookupHopsSig:mean 	24.6
scalar Network.dyn_peer[97] 	lookupTimeSig:mean 	4.1304347826087
scalar Network.dyn_peer[97] 	lookupStabilitySig:mean 	0.9467606212053
scalar Network.dyn_peer[97] 	lookupHopsSig:mean 	40.347826086957
scalar Network.dyn_peer[98] 	lookupTimeSig:mean 	2.8086956521739
scalar Network.dyn_peer[98] 	lookupStabilitySig:mean 	0.94319707039825
scalar Network.dyn_peer[98] 	lookupHopsSig:mean 	27.130434782609
scalar Network.dyn_peer[99] 	lookupTimeSig:mean 	2.09
scalar Network.dyn_peer[99] 	lookupStabilitySig:mean 	0.90905134538189
scalar Network.dyn_peer[99] 	lookupHopsSig:mean 	20
scalar Network.dyn_peer[100] 	lookupTimeSig:mean 	2.5222222222222
scalar Network.dyn_peer[100] 	lookupStabilitySig:mean 	0.93486778621769
scalar Network.dyn_peer[100] 	lookupHopsSig:mean 	24.277777777778
scalar Network.dyn_peer[101] 	lookupTimeSig:mean 	2.5529411764706
scalar Network.dyn_peer[101] 	lookupStabilitySig:mean 	0.93875631558544
scalar Network.dyn_peer[101] 	lookupHopsSig:mean 	24.588235294118
scalar Network.dyn_peer[102] 	lookupTimeSig:mean 	2.1277777777778
scalar Network.dyn_peer[102] 	lookupStabilitySig:mean 	0.93229283867145
scalar Network.dyn_peer[102] 	lookupHopsSig:mean 	20.333333333333
scalar Network.dyn_peer[103] 	lookupTimeSig:mean 	2.7823529411765
scalar Network.dyn_peer[103] 	lookupStabilitySig:mean 	0.9288628100938
scalar Network.dyn_peer[103] 	lookupHopsSig:mean 	26.882352941176
scalar Network.dyn_peer[104] 	lookupTimeSig:mean 	3.62
scalar Network.dyn_peer[104] 	lookupStabilitySig:mean 	0.95699602429755
scalar Network.dyn_peer[104] 	lookupHopsSig:mean 	35.24
scalar Network.dyn_peer[105] 	lookupTimeSig:mean 	3.62
scalar Network.dyn_peer[105] 	lookupStabilitySig:mean 	0.93405162463896
scalar Network.dyn_peer[105] 	lookupHopsSig:mean 	35.266666666667
scalar Network.dyn_peer[106] 	lookupTimeSig:mean 	3.775
scalar Network.dyn_peer[106] 	lookupStabilitySig:mean 	0.89721265862075
scalar Network.dyn_peer[106] 	lookupHopsSig:mean 	36.833333333333
scalar Network.dyn_peer[107] 	lookupTimeSig:mean 	3.13
scalar Network.dyn_peer[107] 	lookupStabilitySig:mean 	0.9385034841398
scalar Network.dyn_peer[107] 	lookupHopsSig:mean 	30.35
scalar Network.dyn_peer[108] 	lookupTimeSig:mean 	3.3105263157895
scalar Network.dyn_peer[108] 	lookupStabilitySig:mean 	0.94035505402931
scalar Network.dyn_peer[108] 	lookupHopsSig:mean 	32.157894736842
scalar Network.dyn_peer[109] 	lookupTimeSig:mean 	3.485
scalar Network.dyn_peer[109] 	lookupStabilitySig:mean 	0.95118955757935
scalar Network.dyn_peer[109] 	lookupHopsSig:mean 	33.9
scalar Network.dyn_peer[110] 	lookupTimeSig:mean 	3.1269230769231
scalar Network.dyn_peer[110] 	lookupStabilitySig:mean 	0.94992153169229
scalar Network.dyn_peer[110] 	lookupHopsSig:mean 	30.307692307692
scalar Network.dyn_peer[111] 	lookupTimeSig:mean 	3.56875
scalar Network.dyn_peer[111] 	lookupStabilitySig:mean 	0.92594490858028
scalar Network.dyn_peer[111] 	lookupHopsSig:mean 	34.75
scalar Network.dyn_peer[112] 	lookupTimeSig:mean 	3.4652173913043
scalar Network.dyn_peer[112] 	lookupStabilitySig:mean 	0.95741283215339
scalar Network.dyn_peer[112] 	lookupHopsSig:mean 	33.695652173913
scalar Network.dyn_peer[113] 	lookupTimeSig:mean 	4.2944444444444
scalar Network.dyn_peer[113] 	lookupStabilitySig:mean 	0.93878978695203
scalar Network.dyn_peer[113] 	lookupHopsSig:mean 	42
scalar Network.dyn_peer[114] 	lookupTimeSig:mean 	2.2904761904762
scalar Network.dyn_peer[114] 	lookupStabilitySig:mean 	0.95582118567212
scalar Network.dyn_peer[114] 	lookupHopsSig:mean 	21.952380952381
scalar Network.dyn_peer[115] 	lookupTimeSig:mean 	3.9333333333333
scalar Network.dyn_peer[115] 	lookupStabilitySig:mean 	0.95304750259744
scalar Network.dyn_peer[115] 	lookupHopsSig:mean 	38.380952380952
scalar Network.dyn_peer[116] 	lookupTimeSig:mean 	2.9227272727273
scalar Network.dyn_peer[116] 	lookupStabilitySig:mean 	0.94614217673767
scalar Network.dyn_peer[116] 	lookupHopsSig:mean 	28.272727272727
scalar Network.dyn_peer[117] 	lookupTimeSig:mean 	1.75
scalar Network.dyn_peer[117] 	lookupStabilitySig:mean 	0.93300410802476
scalar Network.dyn_peer[117] 	lookupHopsSig:mean 	16.5625
scalar Network.dyn_peer[118] 	lookupTimeSig:mean 	2.6368421052632
scalar Network.dyn_peer[118] 	lookupStabilitySig:mean 	0.94107603227818
scalar Network.dyn_peer[118] 	lookupHopsSig:mean 	25.421052631579
scalar Network.dyn_peer[119] 	lookupTimeSig:mean 	3.2846153846154
scalar Network.dyn_peer[119] 	lookupStabilitySig:mean 	0.93371598257755
scalar Network.dyn_peer[119] 	lookupHopsSig:mean 	31.923076923077
scalar Network.dyn_peer[120] 	lookupTimeSig:mean 	2.7428571428571
scalar Network.dyn_peer[120] 	lookupStabilitySig:mean 	0.93585707959054
scalar Network.dyn_peer[120] 	lookupHopsSig:mean 	26.5
scalar Network.dyn_peer[121] 	lookupTimeSig:mean 	3.7090909090909
scalar Network.dyn_peer[121] 	lookupStabilitySig:mean 	0.92835282839157
scalar Network.dyn_peer[121] 	lookupHopsSig:mean 	36.181818181818
scalar Network.dyn_peer[122] 	lookupTimeSig:mean 	2.4333333333333
scalar Network.dyn_peer[122] 	lookupStabilitySig:mean 	0.95155518923032
scalar Network.dyn_peer[122] 	lookupHopsSig:mean 	23.375
scalar Network.dyn_peer[123] 	lookupTimeSig:mean 	2.8866666666667
scalar Network.dyn_peer[123] 	lookupStabilitySig:mean 	0.93415932307641
scalar Network.dyn_peer[123] 	lookupHopsSig:mean 	27.933333333333
scalar Network.dyn_peer[124] 	lookupTimeSig:mean 	3.0421052631579
scalar Network.dyn_peer[124] 	lookupStabilitySig:mean 	0.94964152530424
scalar Network.dyn_peer[124] 	lookupHopsSig:mean 	29.473684210526
scalar Network.dyn_peer[125] 	lookupTimeSig:mean 	3.4136363636364
scalar Network.dyn_peer[125] 	lookupStabilitySig:mean 	0.95322755749591
scalar Network.dyn_peer[125] 	lookupHopsSig:mean 	33.181818181818
scalar Network.dyn_peer[126] 	lookupTimeSig:mean 	3.6208333333333
scalar Network.dyn_peer[126] 	lookupStabilitySig:mean 	0.95647846935753
scalar Network.dyn_peer[126] 	lookupHopsSig:mean 	35.25
scalar Network.dyn_peer[127] 	lookupTimeSig:mean 	1.7461538461538
scalar Network.dyn_peer[127] 	lookupStabilitySig:mean 	0.92902476590377
scalar Network.dyn_peer[127] 	lookupHopsSig:mean 	16.538461538462
scalar Network.dyn_peer[128] 	lookupTimeSig:mean 	2.2931034482759
scalar Network.dyn_peer[128] 	lookupStabilitySig:mean 	0.95868741816054
scalar Network.dyn_peer[128] 	lookupHopsSig:mean 	21.965517241379
scalar Network.dyn_peer[129] 	lookupTimeSig:mean 	3.4333333333333
scalar Network.dyn_peer[129] 	lookupStabilitySig:mean 	0.94295660646943
scalar Network.dyn_peer[129] 	lookupHopsSig:mean 	33.388888888889
scalar Network.dyn_peer[130] 	lookupTimeSig:mean 	2.536
scalar Network.dyn_peer[130] 	lookupStabilitySig:mean 	0.95699874235317
scalar Network.dyn_peer[130] 	lookupHopsSig:mean 	24.4
scalar Network.dyn_peer[131] 	lookupTimeSig:mean 	3.4368421052632
scalar Network.dyn_peer[131] 	lookupStabilitySig:mean 	0.95464998199359
scalar Network.dyn_peer[131] 	lookupHopsSig:mean 	33.421052631579
scalar Network.dyn_peer[132] 	lookupTimeSig:mean 	3.5037037037037
scalar Network.dyn_peer[132] 	lookupStabilitySig:mean 	0.96363438183067
scalar Network.dyn_peer[132] 	lookupHopsSig:mean 	34.074074074074
scalar Network.dyn_peer[133] 	lookupTimeSig:mean 	3.9
scalar Network.dyn_peer[133] 	lookupStabilitySig:mean 	0.9568444066407
scalar Network.dyn_peer[133] 	lookupHopsSig:mean 	38.058823529412
scalar Network.dyn_peer[134] 	lookupTimeSig:mean 	4.2684210526316
scalar Network.dyn_peer[134] 	lookupStabilitySig:mean 	0.94158371938638
scalar Network.dyn_peer[134] 	lookupHopsSig:mean 	41.736842105263
scalar Network.dyn_peer[135] 	lookupTimeSig:mean 	3.4454545454545
scalar Network.dyn_peer[135] 	lookupStabilitySig:mean 	0.95190107559955
scalar Network.dyn_peer[135] 	lookupHopsSig:mean 	33.5
scalar Network.dyn_peer[136] 	lookupTimeSig:mean 	2.8058823529412
scalar Network.dyn_peer[136] 	lookupStabilitySig:mean 	0.94304979877437
scalar Network.dyn_peer[136] 	lookupHopsSig:mean 	27.117647058824
scalar Network.dyn_peer[137] 	lookupTimeSig:mean 	4
scalar Network.dyn_peer[137] 	lookupStabilitySig:mean 	0.94722340504328
scalar Network.dyn_peer[137] 	lookupHopsSig:mean 	39.066666666667
scalar Network.dyn_peer[138] 	lookupTimeSig:mean 	2.8222222222222
scalar Network.dyn_peer[138] 	lookupStabilitySig:mean 	0.94238920530511
scalar Network.dyn_peer[138] 	lookupHopsSig:mean 	27.277777777778
scalar Network.dyn_peer[139] 	lookupTimeSig:mean 	3.2055555555556
scalar Network.dyn_peer[139] 	lookupStabilitySig:mean 	0.95510797259501
scalar Network.dyn_peer[139] 	lookupHopsSig:mean 	31.111111111111
scalar Network.dyn_peer[140] 	lookupTimeSig:mean 	2.5642857142857
scalar Network.dyn_peer[140] 	lookupStabilitySig:mean 	0.96784288085265
scalar Network.dyn_peer[140] 	lookupHopsSig:mean 	24.678571428571
scalar Network.dyn_peer[141] 	lookupTimeSig:mean 	2.60625
scalar Network.dyn_peer[141] 	lookupStabilitySig:mean 	0.94189307748456
scalar Network.dyn_peer[141] 	lookupHopsSig:mean 	25.125
scalar Network.dyn_peer[142] 	lookupTimeSig:mean 	2.61875
scalar Network.dyn_peer[142] 	lookupStabilitySig:mean 	0.93794745182095
scalar Network.dyn_peer[142] 	lookupHopsSig:mean 	25.25
scalar Network.dyn_peer[143] 	lookupTimeSig:mean 	3.7133333333333
scalar Network.dyn_peer[143] 	lookupStabilitySig:mean 	0.93675108247747
scalar Network.dyn_peer[143] 	lookupHopsSig:mean 	36.2
scalar Network.dyn_peer[144] 	lookupTimeSig:mean 	2.22
scalar Network.dyn_peer[144] 	lookupStabilitySig:mean 	0.93600155802754
scalar Network.dyn_peer[144] 	lookupHopsSig:mean 	21.266666666667
scalar Network.dyn_peer[145] 	lookupTimeSig:mean 	2.7
scalar Network.dyn_peer[145] 	lookupStabilitySig:mean 	0.94177120734992
scalar Network.dyn_peer[145] 	lookupHopsSig:mean 	26.058823529412
scalar Network.dyn_peer[146] 	lookupTimeSig:mean 	3.06875
scalar Network.dyn_peer[146] 	lookupStabilitySig:mean 	0.94606363044295
scalar Network.dyn_peer[146] 	lookupHopsSig:mean 	29.75
scalar Network.dyn_peer[147] 	lookupTimeSig:mean 	2.7666666666667
scalar Network.dyn_peer[147] 	lookupStabilitySig:mean 	0.93578286014963
scalar Network.dyn_peer[147] 	lookupHopsSig:mean 	26.75
scalar Network.dyn_peer[148] 	lookupTimeSig:mean 	4.2148148148148
scalar Network.dyn_peer[148] 	lookupStabilitySig:mean 	0.96817055103128
scalar Network.dyn_peer[148] 	lookupHopsSig:mean 	41.185185185185
scalar Network.dyn_peer[149] 	lookupTimeSig:mean 	2.8
scalar Network.dyn_peer[149] 	lookupStabilitySig:mean 	0.95245761853981
scalar Network.dyn_peer[149] 	lookupHopsSig:mean 	27.045454545455
scalar Network.dyn_peer[150] 	lookupTimeSig:mean 	2.7315789473684
scalar Network.dyn_peer[150] 	lookupStabilitySig:mean 	0.94888123918913
scalar Network.dyn_peer[150] 	lookupHopsSig:mean 	26.368421052632
scalar Network.dyn_peer[151] 	lookupTimeSig:mean 	3.2941176470588
scalar Network.dyn_peer[151] 	lookupStabilitySig:mean 	0.94745080262724
scalar Network.dyn_peer[151] 	lookupHopsSig:mean 	32
scalar Network.dyn_peer[152] 	lookupTimeSig:mean 	3.8357142857143
scalar Network.dyn_peer[152] 	lookupStabilitySig:mean 	0.95122305165777
scalar Network.dyn_peer[152] 	lookupHopsSig:mean 	37.428571428571
scalar Network.dyn_peer[153] 	lookupTimeSig:mean 	3.7652173913043
scalar Network.dyn_peer[153] 	lookupStabilitySig:mean 	0.95846847880065
scalar Network.dyn_peer[153] 	lookupHopsSig:mean 	36.695652173913
scalar Network.dyn_peer[154] 	lookupTimeSig:mean 	4.08
scalar Network.dyn_peer[154] 	lookupStabilitySig:mean 	0.93446953552775
scalar Network.dyn_peer[154] 	lookupHopsSig:mean 	39.9
scalar Network.dyn_peer[155] 	lookupTimeSig:mean 	2.6736842105263
scalar Network.dyn_peer[155] 	lookupStabilitySig:mean 	0.95426006127443
scalar Network.dyn_peer[155] 	lookupHopsSig:mean 	25.789473684211
scalar Network.dyn_peer[156] 	lookupTimeSig:mean 	3.1777777777778
scalar Network.dyn_peer[156] 	lookupStabilitySig:mean 	0.95092345863425
scalar Network.dyn_peer[156] 	lookupHopsSig:mean 	30.833333333333
scalar Network.dyn_peer[157] 	lookupTimeSig:mean 	3.6611111111111
scalar Network.dyn_peer[157] 	lookupStabilitySig:mean 	0.96261699088953
scalar Network.dyn_peer[157] 	lookupHopsSig:mean 	35.666666666667
scalar Network.dyn_peer[158] 	lookupTimeSig:mean 	2.9846153846154
scalar Network.dyn_peer[158] 	lookupStabilitySig:mean 	0.96353659040044
scalar Network.dyn_peer[158] 	lookupHopsSig:mean 	28.884615384615
scalar Network.dyn_peer[159] 	lookupTimeSig:mean 	3.6034482758621
scalar Network.dyn_peer[159] 	lookupStabilitySig:mean 	0.97141407617039
scalar Network.dyn_peer[159] 	lookupHopsSig:mean 	35.068965517241
scalar Network.dyn_peer[160] 	lookupTimeSig:mean 	2.74
scalar Network.dyn_peer[160] 	lookupStabilitySig:mean 	0.95616030485835
scalar Network.dyn_peer[160] 	lookupHopsSig:mean 	26.45
scalar Network.dyn_peer[161] 	lookupTimeSig:mean 	3.4875
scalar Network.dyn_peer[161] 	lookupStabilitySig:mean 	0.94218417941011
scalar Network.dyn_peer[161] 	lookupHopsSig:mean 	33.9375
scalar Network.dyn_peer[162] 	lookupTimeSig:mean 	3.8380952380952
scalar Network.dyn_peer[162] 	lookupStabilitySig:mean 	0.95445018188496
scalar Network.dyn_peer[162] 	lookupHopsSig:mean 	37.428571428571
scalar Network.dyn_peer[163] 	lookupTimeSig:mean 	1.725
scalar Network.dyn_peer[163] 	lookupStabilitySig:mean 	0.95596443153045
scalar Network.dyn_peer[163] 	lookupHopsSig:mean 	16.3
scalar Network.dyn_peer[164] 	lookupTimeSig:mean 	4.1842105263158
scalar Network.dyn_peer[164] 	lookupStabilitySig:mean 	0.95574225454383
scalar Network.dyn_peer[164] 	lookupHopsSig:mean 	40.894736842105
scalar Network.dyn_peer[165] 	lookupTimeSig:mean 	3.66
scalar Network.dyn_peer[165] 	lookupStabilitySig:mean 	0.95683207210968
scalar Network.dyn_peer[165] 	lookupHopsSig:mean 	35.65
scalar Network.dyn_peer[166] 	lookupTimeSig:mean 	3.5
scalar Network.dyn_peer[166] 	lookupStabilitySig:mean 	0.94940510060017
scalar Network.dyn_peer[166] 	lookupHopsSig:mean 	34.066666666667
scalar Network.dyn_peer[167] 	lookupTimeSig:mean 	2.8041666666667
scalar Network.dyn_peer[167] 	lookupStabilitySig:mean 	0.96750423231909
scalar Network.dyn_peer[167] 	lookupHopsSig:mean 	27.083333333333
scalar Network.dyn_peer[168] 	lookupTimeSig:mean 	2.2821428571429
scalar Network.dyn_peer[168] 	lookupStabilitySig:mean 	0.96500135646368
scalar Network.dyn_peer[168] 	lookupHopsSig:mean 	21.857142857143
scalar Network.dyn_peer[169] 	lookupTimeSig:mean 	2.836
scalar Network.dyn_peer[169] 	lookupStabilitySig:mean 	0.96689990439685
scalar Network.dyn_peer[169] 	lookupHopsSig:mean 	27.4
scalar Network.dyn_peer[170] 	lookupTimeSig:mean 	3.9214285714286
scalar Network.dyn_peer[170] 	lookupStabilitySig:mean 	0.95803072065714
scalar Network.dyn_peer[170] 	lookupHopsSig:mean 	38.285714285714
scalar Network.dyn_peer[171] 	lookupTimeSig:mean 	2.85
scalar Network.dyn_peer[171] 	lookupStabilitySig:mean 	0.96144801533294
scalar Network.dyn_peer[171] 	lookupHopsSig:mean 	27.545454545455
scalar Network.dyn_peer[172] 	lookupTimeSig:mean 	3.9230769230769
scalar Network.dyn_peer[172] 	lookupStabilitySig:mean 	0.9384361918156
scalar Network.dyn_peer[172] 	lookupHopsSig:mean 	38.307692307692
scalar Network.dyn_peer[173] 	lookupTimeSig:mean 	2.7083333333333
scalar Network.dyn_peer[173] 	lookupStabilitySig:mean 	0.95416307891719
scalar Network.dyn_peer[173] 	lookupHopsSig:mean 	26.166666666667
scalar Network.dyn_peer[174] 	lookupTimeSig:mean 	3.7666666666667
scalar Network.dyn_peer[174] 	lookupStabilitySig:mean 	0.96721770150277
scalar Network.dyn_peer[174] 	lookupHopsSig:mean 	36.7
scalar Network.dyn_peer[175] 	lookupTimeSig:mean 	2.3586206896552
scalar Network.dyn_peer[175] 	lookupStabilitySig:mean 	0.97105783141612
scalar Network.dyn_peer[175] 	lookupHopsSig:mean 	22.620689655172
scalar Network.dyn_peer[176] 	lookupTimeSig:mean 	2.9777777777778
scalar Network.dyn_peer[176] 	lookupStabilitySig:mean 	0.95064533678427
scalar Network.dyn_peer[176] 	lookupHopsSig:mean 	28.833333333333
scalar Network.dyn_peer[177] 	lookupTimeSig:mean 	3.56
scalar Network.dyn_peer[177] 	lookupStabilitySig:mean 	0.9568098415737
scalar Network.dyn_peer[177] 	lookupHopsSig:mean 	34.65
scalar Network.dyn_peer[178] 	lookupTimeSig:mean 	3.3458333333333
scalar Network.dyn_peer[178] 	lookupStabilitySig:mean 	0.9677980217651
scalar Network.dyn_peer[178] 	lookupHopsSig:mean 	32.5
scalar Network.dyn_peer[179] 	lookupTimeSig:mean 	3.4555555555556
scalar Network.dyn_peer[179] 	lookupStabilitySig:mean 	0.95913282235981
scalar Network.dyn_peer[179] 	lookupHopsSig:mean 	33.611111111111
scalar Network.dyn_peer[180] 	lookupTimeSig:mean 	3.11875
scalar Network.dyn_peer[180] 	lookupStabilitySig:mean 	0.9626536500873
scalar Network.dyn_peer[180] 	lookupHopsSig:mean 	30.25
scalar Network.dyn_peer[181] 	lookupTimeSig:mean 	3.3357142857143
scalar Network.dyn_peer[181] 	lookupStabilitySig:mean 	0.95023689941237
scalar Network.dyn_peer[181] 	lookupHopsSig:mean 	32.428571428571
scalar Network.dyn_peer[182] 	lookupTimeSig:mean 	3.7068965517241
scalar Network.dyn_peer[182] 	lookupStabilitySig:mean 	0.96513807172646
scalar Network.dyn_peer[182] 	lookupHopsSig:mean 	36.103448275862
scalar Network.dyn_peer[183] 	lookupTimeSig:mean 	2.9333333333333
scalar Network.dyn_peer[183] 	lookupStabilitySig:mean 	0.95525549575945
scalar Network.dyn_peer[183] 	lookupHopsSig:mean 	28.388888888889
scalar Network.dyn_peer[184] 	lookupTimeSig:mean 	3.3782608695652
scalar Network.dyn_peer[184] 	lookupStabilitySig:mean 	0.96665297018405
scalar Network.dyn_peer[184] 	lookupHopsSig:mean 	32.826086956522
scalar Network.dyn_peer[185] 	lookupTimeSig:mean 	3.4933333333333
scalar Network.dyn_peer[185] 	lookupStabilitySig:mean 	0.9498914652504
scalar Network.dyn_peer[185] 	lookupHopsSig:mean 	34
scalar Network.dyn_peer[186] 	lookupTimeSig:mean 	3.2136363636364
scalar Network.dyn_peer[186] 	lookupStabilitySig:mean 	0.96491796754047
scalar Network.dyn_peer[186] 	lookupHopsSig:mean 	31.181818181818
scalar Network.dyn_peer[187] 	lookupTimeSig:mean 	2.4705882352941
scalar Network.dyn_peer[187] 	lookupStabilitySig:mean 	0.94997434279717
scalar Network.dyn_peer[187] 	lookupHopsSig:mean 	23.764705882353
scalar Network.dyn_peer[188] 	lookupTimeSig:mean 	2.8034482758621
scalar Network.dyn_peer[188] 	lookupStabilitySig:mean 	0.96702185133472
scalar Network.dyn_peer[188] 	lookupHopsSig:mean 	27.068965517241
scalar Network.dyn_peer[189] 	lookupTimeSig:mean 	3.7304347826087
scalar Network.dyn_peer[189] 	lookupStabilitySig:mean 	0.96677507694973
scalar Network.dyn_peer[189] 	lookupHopsSig:mean 	36.347826086957
scalar Network.dyn_peer[190] 	lookupTimeSig:mean 	2.6952380952381
scalar Network.dyn_peer[190] 	lookupStabilitySig:mean 	0.96401406866997
scalar Network.dyn_peer[190] 	lookupHopsSig:mean 	26
scalar Network.dyn_peer[191] 	lookupTimeSig:mean 	3.2206896551724
scalar Network.dyn_peer[191] 	lookupStabilitySig:mean 	0.96803521796065
scalar Network.dyn_peer[191] 	lookupHopsSig:mean 	31.241379310345
scalar Network.dyn_peer[192] 	lookupTimeSig:mean 	3.6565217391304
scalar Network.dyn_peer[192] 	lookupStabilitySig:mean 	0.96611394848594
scalar Network.dyn_peer[192] 	lookupHopsSig:mean 	35.608695652174
scalar Network.dyn_peer[193] 	lookupTimeSig:mean 	3.485
scalar Network.dyn_peer[193] 	lookupStabilitySig:mean 	0.95970406045672
scalar Network.dyn_peer[193] 	lookupHopsSig:mean 	33.9
scalar Network.dyn_peer[194] 	lookupTimeSig:mean 	3.6038461538462
scalar Network.dyn_peer[194] 	lookupStabilitySig:mean 	0.96925089709783
scalar Network.dyn_peer[194] 	lookupHopsSig:mean 	35.076923076923
scalar Network.dyn_peer[195] 	lookupTimeSig:mean 	2.4058823529412
scalar Network.dyn_peer[195] 	lookupStabilitySig:mean 	0.95908638095374
scalar Network.dyn_peer[195] 	lookupHopsSig:mean 	23.117647058824
scalar Network.dyn_peer[196] 	lookupTimeSig:mean 	3.3903225806452
scalar Network.dyn_peer[196] 	lookupStabilitySig:mean 	0.9738701468619
scalar Network.dyn_peer[196] 	lookupHopsSig:mean 	32.935483870968
scalar Network.dyn_peer[197] 	lookupTimeSig:mean 	3.5625
scalar Network.dyn_peer[197] 	lookupStabilitySig:mean 	0.96354960289318
scalar Network.dyn_peer[197] 	lookupHopsSig:mean 	34.666666666667
scalar Network.dyn_peer[198] 	lookupTimeSig:mean 	3.95
scalar Network.dyn_peer[198] 	lookupStabilitySig:mean 	0.96306417173473
scalar Network.dyn_peer[198] 	lookupHopsSig:mean 	38.55
scalar Network.dyn_peer[199] 	lookupTimeSig:mean 	3.4541666666667
scalar Network.dyn_peer[199] 	lookupStabilitySig:mean 	0.96493887824666
scalar Network.dyn_peer[199] 	lookupHopsSig:mean 	33.583333333333
scalar Network.dyn_peer[200] 	lookupTimeSig:mean 	3.6033333333333
scalar Network.dyn_peer[200] 	lookupStabilitySig:mean 	0.96972525222227
scalar Network.dyn_peer[200] 	lookupHopsSig:mean 	35.066666666667
scalar Network.dyn_peer[201] 	lookupTimeSig:mean 	3.7947368421053
scalar Network.dyn_peer[201] 	lookupStabilitySig:mean 	0.95631033004151
scalar Network.dyn_peer[201] 	lookupHopsSig:mean 	37
scalar Network.dyn_peer[202] 	lookupTimeSig:mean 	2.85
scalar Network.dyn_peer[202] 	lookupStabilitySig:mean 	0.96369835865599
scalar Network.dyn_peer[202] 	lookupHopsSig:mean 	27.545454545455
scalar Network.dyn_peer[203] 	lookupTimeSig:mean 	2.975
scalar Network.dyn_peer[203] 	lookupStabilitySig:mean 	0.96360890280921
scalar Network.dyn_peer[203] 	lookupHopsSig:mean 	28.8
scalar Network.dyn_peer[204] 	lookupTimeSig:mean 	3.875
scalar Network.dyn_peer[204] 	lookupStabilitySig:mean 	0.94866137648933
scalar Network.dyn_peer[204] 	lookupHopsSig:mean 	37.8125
scalar Network.dyn_peer[205] 	lookupTimeSig:mean 	3.24
scalar Network.dyn_peer[205] 	lookupStabilitySig:mean 	0.95999846250246
scalar Network.dyn_peer[205] 	lookupHopsSig:mean 	31.466666666667
scalar Network.dyn_peer[206] 	lookupTimeSig:mean 	3.0868421052632
scalar Network.dyn_peer[206] 	lookupStabilitySig:mean 	0.97930788421256
scalar Network.dyn_peer[206] 	lookupHopsSig:mean 	29.894736842105
scalar Network.dyn_peer[207] 	lookupTimeSig:mean 	3.5058823529412
scalar Network.dyn_peer[207] 	lookupStabilitySig:mean 	0.95764367287869
scalar Network.dyn_peer[207] 	lookupHopsSig:mean 	34.117647058824
scalar Network.dyn_peer[208] 	lookupTimeSig:mean 	3.3277777777778
scalar Network.dyn_peer[208] 	lookupStabilitySig:mean 	0.95645733638149
scalar Network.dyn_peer[208] 	lookupHopsSig:mean 	32.333333333333
scalar Network.dyn_peer[209] 	lookupTimeSig:mean 	3.625
scalar Network.dyn_peer[209] 	lookupStabilitySig:mean 	0.96937390399156
scalar Network.dyn_peer[209] 	lookupHopsSig:mean 	35.291666666667
scalar Network.dyn_peer[210] 	lookupTimeSig:mean 	3.5
scalar Network.dyn_peer[210] 	lookupStabilitySig:mean 	0.94383951527281
scalar Network.dyn_peer[210] 	lookupHopsSig:mean 	34.076923076923
scalar Network.dyn_peer[211] 	lookupTimeSig:mean 	3.7071428571429
scalar Network.dyn_peer[211] 	lookupStabilitySig:mean 	0.96098132853928
scalar Network.dyn_peer[211] 	lookupHopsSig:mean 	36.142857142857
scalar Network.dyn_peer[212] 	lookupTimeSig:mean 	4.15
scalar Network.dyn_peer[212] 	lookupStabilitySig:mean 	0.96590592288412
scalar Network.dyn_peer[212] 	lookupHopsSig:mean 	40.55
scalar Network.dyn_peer[213] 	lookupTimeSig:mean 	3.34
scalar Network.dyn_peer[213] 	lookupStabilitySig:mean 	0.96811641567765
scalar Network.dyn_peer[213] 	lookupHopsSig:mean 	32.45
scalar Network.dyn_peer[214] 	lookupTimeSig:mean 	3.3764705882353
scalar Network.dyn_peer[214] 	lookupStabilitySig:mean 	0.96212080127204
scalar Network.dyn_peer[214] 	lookupHopsSig:mean 	32.823529411765
scalar Network.dyn_peer[215] 	lookupTimeSig:mean 	3.2666666666667
scalar Network.dyn_peer[215] 	lookupStabilitySig:mean 	0.95943769321422
scalar Network.dyn_peer[215] 	lookupHopsSig:mean 	31.714285714286
scalar Network.dyn_peer[216] 	lookupTimeSig:mean 	3.9863636363636
scalar Network.dyn_peer[216] 	lookupStabilitySig:mean 	0.96994938489727
scalar Network.dyn_peer[216] 	lookupHopsSig:mean 	38.909090909091
scalar Network.dyn_peer[217] 	lookupTimeSig:mean 	3.3863636363636
scalar Network.dyn_peer[217] 	lookupStabilitySig:mean 	0.9639422363517
scalar Network.dyn_peer[217] 	lookupHopsSig:mean 	32.909090909091
scalar Network.dyn_peer[218] 	lookupTimeSig:mean 	5.0636363636364
scalar Network.dyn_peer[218] 	lookupStabilitySig:mean 	0.93991975727576
scalar Network.dyn_peer[218] 	lookupHopsSig:mean 	49.727272727273
scalar Network.dyn_peer[219] 	lookupTimeSig:mean 	3.468
scalar Network.dyn_peer[219] 	lookupStabilitySig:mean 	0.96911352501251
scalar Network.dyn_peer[219] 	lookupHopsSig:mean 	33.72
scalar Network.dyn_peer[220] 	lookupTimeSig:mean 	2.5470588235294
scalar Network.dyn_peer[220] 	lookupStabilitySig:mean 	0.96079906406265
scalar Network.dyn_peer[220] 	lookupHopsSig:mean 	24.529411764706
scalar Network.dyn_peer[221] 	lookupTimeSig:mean 	2.4869565217391
scalar Network.dyn_peer[221] 	lookupStabilitySig:mean 	0.97216276384627
scalar Network.dyn_peer[221] 	lookupHopsSig:mean 	23.913043478261
scalar Network.dyn_peer[222] 	lookupTimeSig:mean 	3.625
scalar Network.dyn_peer[222] 	lookupStabilitySig:mean 	0.96222727399436
scalar Network.dyn_peer[222] 	lookupHopsSig:mean 	35.3125
scalar Network.dyn_peer[223] 	lookupTimeSig:mean 	3.3875
scalar Network.dyn_peer[223] 	lookupStabilitySig:mean 	0.96294330666569
scalar Network.dyn_peer[223] 	lookupHopsSig:mean 	32.9375
scalar Network.dyn_peer[224] 	lookupTimeSig:mean 	2.388
scalar Network.dyn_peer[224] 	lookupStabilitySig:mean 	0.96536823868752
scalar Network.dyn_peer[224] 	lookupHopsSig:mean 	22.92
scalar Network.dyn_peer[225] 	lookupTimeSig:mean 	2.8846153846154
scalar Network.dyn_peer[225] 	lookupStabilitySig:mean 	0.95842890826036
scalar Network.dyn_peer[225] 	lookupHopsSig:mean 	27.923076923077
scalar Network.dyn_peer[226] 	lookupTimeSig:mean 	2.6952380952381
scalar Network.dyn_peer[226] 	lookupStabilitySig:mean 	0.96485144592866
scalar Network.dyn_peer[226] 	lookupHopsSig:mean 	26
scalar Network.dyn_peer[227] 	lookupTimeSig:mean 	4.115
scalar Network.dyn_peer[227] 	lookupStabilitySig:mean 	0.96113978860667
scalar Network.dyn_peer[227] 	lookupHopsSig:mean 	40.2
scalar Network.dyn_peer[228] 	lookupTimeSig:mean 	3.3428571428571
scalar Network.dyn_peer[228] 	lookupStabilitySig:mean 	0.96033297439239
scalar Network.dyn_peer[228] 	lookupHopsSig:mean 	32.47619047619
scalar Network.dyn_peer[229] 	lookupTimeSig:mean 	2.9285714285714
scalar Network.dyn_peer[229] 	lookupStabilitySig:mean 	0.97487210459076
scalar Network.dyn_peer[229] 	lookupHopsSig:mean 	28.321428571429
scalar Network.dyn_peer[230] 	lookupTimeSig:mean 	3.3142857142857
scalar Network.dyn_peer[230] 	lookupStabilitySig:mean 	0.96908997722147
scalar Network.dyn_peer[230] 	lookupHopsSig:mean 	32.190476190476
scalar Network.dyn_peer[231] 	lookupTimeSig:mean 	3.7
scalar Network.dyn_peer[231] 	lookupStabilitySig:mean 	0.95581008751566
scalar Network.dyn_peer[231] 	lookupHopsSig:mean 	36.066666666667
scalar Network.dyn_peer[232] 	lookupTimeSig:mean 	4.29
scalar Network.dyn_peer[232] 	lookupStabilitySig:mean 	0.95891640436603
scalar Network.dyn_peer[232] 	lookupHopsSig:mean 	41.95
scalar Network.dyn_peer[233] 	lookupTimeSig:mean 	3.8071428571429
scalar Network.dyn_peer[233] 	lookupStabilitySig:mean 	0.95034438993649
scalar Network.dyn_peer[233] 	lookupHopsSig:mean 	37.142857142857
scalar Network.dyn_peer[234] 	lookupTimeSig:mean 	3.9416666666667
scalar Network.dyn_peer[234] 	lookupStabilitySig:mean 	0.94090182792085
scalar Network.dyn_peer[234] 	lookupHopsSig:mean 	38.5
scalar Network.dyn_peer[235] 	lookupTimeSig:mean 	4.2111111111111
scalar Network.dyn_peer[235] 	lookupStabilitySig:mean 	0.96330924164633
scalar Network.dyn_peer[235] 	lookupHopsSig:mean 	41.166666666667
scalar Network.dyn_peer[236] 	lookupTimeSig:mean 	3.2529411764706
scalar Network.dyn_peer[236] 	lookupStabilitySig:mean 	0.96822046225562
scalar Network.dyn_peer[236] 	lookupHopsSig:mean 	31.588235294118
scalar Network.dyn_peer[237] 	lookupTimeSig:mean 	3.0333333333333
scalar Network.dyn_peer[237] 	lookupStabilitySig:mean 	0.97133864704261
scalar Network.dyn_peer[237] 	lookupHopsSig:mean 	29.388888888889
scalar Network.dyn_peer[238] 	lookupTimeSig:mean 	2.647619047619
scalar Network.dyn_peer[238] 	lookupStabilitySig:mean 	0.96095639890769
scalar Network.dyn_peer[238] 	lookupHopsSig:mean 	25.52380952381
scalar Network.dyn_peer[239] 	lookupTimeSig:mean 	3.6
scalar Network.dyn_peer[239] 	lookupStabilitySig:mean 	0.96698392827666
scalar Network.dyn_peer[239] 	lookupHopsSig:mean 	35.058823529412
scalar Network.dyn_peer[240] 	lookupTimeSig:mean 	2.15
scalar Network.dyn_peer[240] 	lookupStabilitySig:mean 	0.95570663486918
scalar Network.dyn_peer[240] 	lookupHopsSig:mean 	20.555555555556
scalar Network.dyn_peer[241] 	lookupTimeSig:mean 	3.2705882352941
scalar Network.dyn_peer[241] 	lookupStabilitySig:mean 	0.9703999891165
scalar Network.dyn_peer[241] 	lookupHopsSig:mean 	31.764705882353
scalar Network.dyn_peer[242] 	lookupTimeSig:mean 	3.6212121212121
scalar Network.dyn_peer[242] 	lookupStabilitySig:mean 	0.97403294909181
scalar Network.dyn_peer[242] 	lookupHopsSig:mean 	35.242424242424
scalar Network.dyn_peer[243] 	lookupTimeSig:mean 	2.925
scalar Network.dyn_peer[243] 	lookupStabilitySig:mean 	0.95715186180314
scalar Network.dyn_peer[243] 	lookupHopsSig:mean 	28.3125
scalar Network.dyn_peer[244] 	lookupTimeSig:mean 	5.675
scalar Network.dyn_peer[244] 	lookupStabilitySig:mean 	0.94863751883774
scalar Network.dyn_peer[244] 	lookupHopsSig:mean 	55.833333333333
scalar Network.dyn_peer[245] 	lookupTimeSig:mean 	3.2166666666667
scalar Network.dyn_peer[245] 	lookupStabilitySig:mean 	0.96542822958953
scalar Network.dyn_peer[245] 	lookupHopsSig:mean 	31.222222222222
scalar Network.dyn_peer[246] 	lookupTimeSig:mean 	2.9777777777778
scalar Network.dyn_peer[246] 	lookupStabilitySig:mean 	0.9326524842634
scalar Network.dyn_peer[246] 	lookupHopsSig:mean 	28.888888888889
scalar Network.dyn_peer[247] 	lookupTimeSig:mean 	3.63
scalar Network.dyn_peer[247] 	lookupStabilitySig:mean 	0.96489746796433
scalar Network.dyn_peer[247] 	lookupHopsSig:mean 	35.35
scalar Network.dyn_peer[248] 	lookupTimeSig:mean 	3.892
scalar Network.dyn_peer[248] 	lookupStabilitySig:mean 	0.96863997602835
scalar Network.dyn_peer[248] 	lookupHopsSig:mean 	37.96
scalar Network.dyn_peer[249] 	lookupTimeSig:mean 	3.4636363636364
scalar Network.dyn_peer[249] 	lookupStabilitySig:mean 	0.960418473654
scalar Network.dyn_peer[249] 	lookupHopsSig:mean 	33.727272727273
scalar Network.dyn_peer[250] 	lookupTimeSig:mean 	3.3333333333333
scalar Network.dyn_peer[250] 	lookupStabilitySig:mean 	0.96411167050246
scalar Network.dyn_peer[250] 	lookupHopsSig:mean 	32.416666666667
scalar Network.dyn_peer[251] 	lookupTimeSig:mean 	2.416
scalar Network.dyn_peer[251] 	lookupStabilitySig:mean 	0.97011071532499
scalar Network.dyn_peer[251] 	lookupHopsSig:mean 	23.2
scalar Network.dyn_peer[252] 	lookupTimeSig:mean 	2.952380952381
scalar Network.dyn_peer[252] 	lookupStabilitySig:mean 	0.97377877005575
scalar Network.dyn_peer[252] 	lookupHopsSig:mean 	28.571428571429
scalar Network.dyn_peer[253] 	lookupTimeSig:mean 	3.7444444444444
scalar Network.dyn_peer[253] 	lookupStabilitySig:mean 	0.95526104148788
scalar Network.dyn_peer[253] 	lookupHopsSig:mean 	36.5
scalar Network.dyn_peer[254] 	lookupTimeSig:mean 	3.45
scalar Network.dyn_peer[254] 	lookupStabilitySig:mean 	0.94603119650856
scalar Network.dyn_peer[254] 	lookupHopsSig:mean 	33.571428571429
scalar Network.dyn_peer[255] 	lookupTimeSig:mean 	3.7307692307692
scalar Network.dyn_peer[255] 	lookupStabilitySig:mean 	0.95492923263317
scalar Network.dyn_peer[255] 	lookupHopsSig:mean 	36.384615384615
scalar Network.dyn_peer[256] 	lookupTimeSig:mean 	2.5263157894737
scalar Network.dyn_peer[256] 	lookupStabilitySig:mean 	0.96332223022259
scalar Network.dyn_peer[256] 	lookupHopsSig:mean 	24.315789473684
scalar Network.dyn_peer[257] 	lookupTimeSig:mean 	3.1714285714286
scalar Network.dyn_peer[257] 	lookupStabilitySig:mean 	0.9685134560402
scalar Network.dyn_peer[257] 	lookupHopsSig:mean 	30.761904761905
scalar Network.dyn_peer[258] 	lookupTimeSig:mean 	3.6606060606061
scalar Network.dyn_peer[258] 	lookupStabilitySig:mean 	0.97580816435352
scalar Network.dyn_peer[258] 	lookupHopsSig:mean 	35.636363636364
scalar Network.dyn_peer[259] 	lookupTimeSig:mean 	2.5555555555556
scalar Network.dyn_peer[259] 	lookupStabilitySig:mean 	0.97457538037647
scalar Network.dyn_peer[259] 	lookupHopsSig:mean 	24.592592592593
scalar Network.dyn_peer[260] 	lookupTimeSig:mean 	3.8555555555556
scalar Network.dyn_peer[260] 	lookupStabilitySig:mean 	0.96511260200188
scalar Network.dyn_peer[260] 	lookupHopsSig:mean 	37.611111111111
scalar Network.dyn_peer[261] 	lookupTimeSig:mean 	2.9928571428571
scalar Network.dyn_peer[261] 	lookupStabilitySig:mean 	0.95447559245596
scalar Network.dyn_peer[261] 	lookupHopsSig:mean 	29
scalar Network.dyn_peer[262] 	lookupTimeSig:mean 	3.3481481481481
scalar Network.dyn_peer[262] 	lookupStabilitySig:mean 	0.96986191053185
scalar Network.dyn_peer[262] 	lookupHopsSig:mean 	32.518518518519
scalar Network.dyn_peer[263] 	lookupTimeSig:mean 	3.2214285714286
scalar Network.dyn_peer[263] 	lookupStabilitySig:mean 	0.95462597327839
scalar Network.dyn_peer[263] 	lookupHopsSig:mean 	31.285714285714
scalar Network.dyn_peer[264] 	lookupTimeSig:mean 	2.9157894736842
scalar Network.dyn_peer[264] 	lookupStabilitySig:mean 	0.96337594911701
scalar Network.dyn_peer[264] 	lookupHopsSig:mean 	28.210526315789
scalar Network.dyn_peer[265] 	lookupTimeSig:mean 	4.6681818181818
scalar Network.dyn_peer[265] 	lookupStabilitySig:mean 	0.9705224405863
scalar Network.dyn_peer[265] 	lookupHopsSig:mean 	45.727272727273
scalar Network.dyn_peer[266] 	lookupTimeSig:mean 	3.4714285714286
scalar Network.dyn_peer[266] 	lookupStabilitySig:mean 	0.96238803748219
scalar Network.dyn_peer[266] 	lookupHopsSig:mean 	33.761904761905
scalar Network.dyn_peer[267] 	lookupTimeSig:mean 	3.1269230769231
scalar Network.dyn_peer[267] 	lookupStabilitySig:mean 	0.97217113485721
scalar Network.dyn_peer[267] 	lookupHopsSig:mean 	30.307692307692
scalar Network.dyn_peer[268] 	lookupTimeSig:mean 	2.8909090909091
scalar Network.dyn_peer[268] 	lookupStabilitySig:mean 	0.94886167398231
scalar Network.dyn_peer[268] 	lookupHopsSig:mean 	28
scalar Network.dyn_peer[269] 	lookupTimeSig:mean 	3.8782608695652
scalar Network.dyn_peer[269] 	lookupStabilitySig:mean 	0.96942526281751
scalar Network.dyn_peer[269] 	lookupHopsSig:mean 	37.826086956522
scalar Network.dyn_peer[270] 	lookupTimeSig:mean 	3.5
scalar Network.dyn_peer[270] 	lookupStabilitySig:mean 	0.97477945137769
scalar Network.dyn_peer[270] 	lookupHopsSig:mean 	34.04
scalar Network.dyn_peer[271] 	lookupTimeSig:mean 	3.8875
scalar Network.dyn_peer[271] 	lookupStabilitySig:mean 	0.96967007685453
scalar Network.dyn_peer[271] 	lookupHopsSig:mean 	37.916666666667
scalar Network.dyn_peer[272] 	lookupTimeSig:mean 	2.8952380952381
scalar Network.dyn_peer[272] 	lookupStabilitySig:mean 	0.96915410907518
scalar Network.dyn_peer[272] 	lookupHopsSig:mean 	28
scalar Network.dyn_peer[273] 	lookupTimeSig:mean 	4.3125
scalar Network.dyn_peer[273] 	lookupStabilitySig:mean 	0.95802698990155
scalar Network.dyn_peer[273] 	lookupHopsSig:mean 	42.1875
scalar Network.dyn_peer[274] 	lookupTimeSig:mean 	3.5266666666667
scalar Network.dyn_peer[274] 	lookupStabilitySig:mean 	0.97540449983596
scalar Network.dyn_peer[274] 	lookupHopsSig:mean 	34.3
scalar Network.dyn_peer[275] 	lookupTimeSig:mean 	3.7772727272727
scalar Network.dyn_peer[275] 	lookupStabilitySig:mean 	0.96888284120624
scalar Network.dyn_peer[275] 	lookupHopsSig:mean 	36.818181818182
scalar Network.dyn_peer[276] 	lookupTimeSig:mean 	3.556
scalar Network.dyn_peer[276] 	lookupStabilitySig:mean 	0.96845241621137
scalar Network.dyn_peer[276] 	lookupHopsSig:mean 	34.6
scalar Network.dyn_peer[277] 	lookupTimeSig:mean 	3.6192307692308
scalar Network.dyn_peer[277] 	lookupStabilitySig:mean 	0.97183117059579
scalar Network.dyn_peer[277] 	lookupHopsSig:mean 	35.230769230769
scalar Network.dyn_peer[278] 	lookupTimeSig:mean 	3.4631578947368
scalar Network.dyn_peer[278] 	lookupStabilitySig:mean 	0.97300209591508
scalar Network.dyn_peer[278] 	lookupHopsSig:mean 	33.684210526316
scalar Network.dyn_peer[279] 	lookupTimeSig:mean 	1.7222222222222
scalar Network.dyn_peer[279] 	lookupStabilitySig:mean 	0.95416494298519
scalar Network.dyn_peer[279] 	lookupHopsSig:mean 	16.333333333333
scalar Network.dyn_peer[280] 	lookupTimeSig:mean 	2.4733333333333
scalar Network.dyn_peer[280] 	lookupStabilitySig:mean 	0.96576933832839
scalar Network.dyn_peer[280] 	lookupHopsSig:mean 	23.8
scalar Network.dyn_peer[281] 	lookupTimeSig:mean 	2.7117647058824
scalar Network.dyn_peer[281] 	lookupStabilitySig:mean 	0.97543577515
scalar Network.dyn_peer[281] 	lookupHopsSig:mean 	26.176470588235
scalar Network.dyn_peer[282] 	lookupTimeSig:mean 	2.3894736842105
scalar Network.dyn_peer[282] 	lookupStabilitySig:mean 	0.97021073832079
scalar Network.dyn_peer[282] 	lookupHopsSig:mean 	22.947368421053
scalar Network.dyn_peer[283] 	lookupTimeSig:mean 	2.5285714285714
scalar Network.dyn_peer[283] 	lookupStabilitySig:mean 	0.93763638833272
scalar Network.dyn_peer[283] 	lookupHopsSig:mean 	24.428571428571
scalar Network.dyn_peer[284] 	lookupTimeSig:mean 	2.9227272727273
scalar Network.dyn_peer[284] 	lookupStabilitySig:mean 	0.97260182436333
scalar Network.dyn_peer[284] 	lookupHopsSig:mean 	28.272727272727
scalar Network.dyn_peer[285] 	lookupTimeSig:mean 	3.2904761904762
scalar Network.dyn_peer[285] 	lookupStabilitySig:mean 	0.96569310849355
scalar Network.dyn_peer[285] 	lookupHopsSig:mean 	31.952380952381
scalar Network.dyn_peer[286] 	lookupTimeSig:mean 	3.7684210526316
scalar Network.dyn_peer[286] 	lookupStabilitySig:mean 	0.96322938645455
scalar Network.dyn_peer[286] 	lookupHopsSig:mean 	36.736842105263
scalar Network.dyn_peer[287] 	lookupTimeSig:mean 	3.6318181818182
scalar Network.dyn_peer[287] 	lookupStabilitySig:mean 	0.9711956569544
scalar Network.dyn_peer[287] 	lookupHopsSig:mean 	35.363636363636
scalar Network.dyn_peer[288] 	lookupTimeSig:mean 	3.2
scalar Network.dyn_peer[288] 	lookupStabilitySig:mean 	0.96115135445466
scalar Network.dyn_peer[288] 	lookupHopsSig:mean 	31.055555555556
scalar Network.dyn_peer[289] 	lookupTimeSig:mean 	3.7461538461538
scalar Network.dyn_peer[289] 	lookupStabilitySig:mean 	0.97462542469685
scalar Network.dyn_peer[289] 	lookupHopsSig:mean 	36.5
scalar Network.dyn_peer[290] 	lookupTimeSig:mean 	4.1631578947368
scalar Network.dyn_peer[290] 	lookupStabilitySig:mean 	0.96277853116197
scalar Network.dyn_peer[290] 	lookupHopsSig:mean 	40.684210526316
scalar Network.dyn_peer[291] 	lookupTimeSig:mean 	3.99
scalar Network.dyn_peer[291] 	lookupStabilitySig:mean 	0.97419511989574
scalar Network.dyn_peer[291] 	lookupHopsSig:mean 	38.95
scalar Network.dyn_peer[292] 	lookupTimeSig:mean 	3.8363636363636
scalar Network.dyn_peer[292] 	lookupStabilitySig:mean 	0.96742364390626
scalar Network.dyn_peer[292] 	lookupHopsSig:mean 	37.409090909091
scalar Network.dyn_peer[293] 	lookupTimeSig:mean 	2.84
scalar Network.dyn_peer[293] 	lookupStabilitySig:mean 	0.9639572290238
scalar Network.dyn_peer[293] 	lookupHopsSig:mean 	27.466666666667
scalar Network.dyn_peer[294] 	lookupTimeSig:mean 	3.7153846153846
scalar Network.dyn_peer[294] 	lookupStabilitySig:mean 	0.97515307905493
scalar Network.dyn_peer[294] 	lookupHopsSig:mean 	36.192307692308
scalar Network.dyn_peer[295] 	lookupTimeSig:mean 	3.8222222222222
scalar Network.dyn_peer[295] 	lookupStabilitySig:mean 	0.96853561458799
scalar Network.dyn_peer[295] 	lookupHopsSig:mean 	37.277777777778
scalar Network.dyn_peer[296] 	lookupTimeSig:mean 	2.6375
scalar Network.dyn_peer[296] 	lookupStabilitySig:mean 	0.96640461896459
scalar Network.dyn_peer[296] 	lookupHopsSig:mean 	25.4375
scalar Network.dyn_peer[297] 	lookupTimeSig:mean 	3.055
scalar Network.dyn_peer[297] 	lookupStabilitySig:mean 	0.97298783753067
scalar Network.dyn_peer[297] 	lookupHopsSig:mean 	29.6
scalar Network.dyn_peer[298] 	lookupTimeSig:mean 	2.6222222222222
scalar Network.dyn_peer[298] 	lookupStabilitySig:mean 	0.96374866102512
scalar Network.dyn_peer[298] 	lookupHopsSig:mean 	25.333333333333
scalar Network.dyn_peer[299] 	lookupTimeSig:mean 	3.4
scalar Network.dyn_peer[299] 	lookupStabilitySig:mean 	0.97560782253277
scalar Network.dyn_peer[299] 	lookupHopsSig:mean 	33.03125
scalar Network.dyn_peer[300] 	lookupTimeSig:mean 	4.0272727272727
scalar Network.dyn_peer[300] 	lookupStabilitySig:mean 	0.95793489539276
scalar Network.dyn_peer[300] 	lookupHopsSig:mean 	39.363636363636
scalar Network.dyn_peer[301] 	lookupTimeSig:mean 	3.0545454545455
scalar Network.dyn_peer[301] 	lookupStabilitySig:mean 	0.97304949020459
scalar Network.dyn_peer[301] 	lookupHopsSig:mean 	29.636363636364
scalar Network.dyn_peer[302] 	lookupTimeSig:mean 	2.3076923076923
scalar Network.dyn_peer[302] 	lookupStabilitySig:mean 	0.9538443472523
scalar Network.dyn_peer[302] 	lookupHopsSig:mean 	22.153846153846
scalar Network.dyn_peer[303] 	lookupTimeSig:mean 	3.00625
scalar Network.dyn_peer[303] 	lookupStabilitySig:mean 	0.96615991686122
scalar Network.dyn_peer[303] 	lookupHopsSig:mean 	29.125
scalar Network.dyn_peer[304] 	lookupTimeSig:mean 	2.075
scalar Network.dyn_peer[304] 	lookupStabilitySig:mean 	0.94986020137245
scalar Network.dyn_peer[304] 	lookupHopsSig:mean 	19.833333333333
scalar Network.dyn_peer[305] 	lookupTimeSig:mean 	3.8166666666667
scalar Network.dyn_peer[305] 	lookupStabilitySig:mean 	0.96719276289352
scalar Network.dyn_peer[305] 	lookupHopsSig:mean 	37.222222222222
scalar Network.dyn_peer[306] 	lookupTimeSig:mean 	2.6866666666667
scalar Network.dyn_peer[306] 	lookupStabilitySig:mean 	0.96601150721932
scalar Network.dyn_peer[306] 	lookupHopsSig:mean 	25.933333333333
scalar Network.dyn_peer[307] 	lookupTimeSig:mean 	3.1647058823529
scalar Network.dyn_peer[307] 	lookupStabilitySig:mean 	0.96349221163922
scalar Network.dyn_peer[307] 	lookupHopsSig:mean 	30.705882352941
scalar Network.dyn_peer[308] 	lookupTimeSig:mean 	3.9678571428571
scalar Network.dyn_peer[308] 	lookupStabilitySig:mean 	0.97437821194762
scalar Network.dyn_peer[308] 	lookupHopsSig:mean 	38.714285714286
scalar Network.dyn_peer[309] 	lookupTimeSig:mean 	3.375
scalar Network.dyn_peer[309] 	lookupStabilitySig:mean 	0.97560259344173
scalar Network.dyn_peer[309] 	lookupHopsSig:mean 	32.8
scalar Network.dyn_peer[310] 	lookupTimeSig:mean 	3.4538461538462
scalar Network.dyn_peer[310] 	lookupStabilitySig:mean 	0.95501368485678
scalar Network.dyn_peer[310] 	lookupHopsSig:mean 	33.615384615385
scalar Network.dyn_peer[311] 	lookupTimeSig:mean 	3.8166666666667
scalar Network.dyn_peer[311] 	lookupStabilitySig:mean 	0.97125747009543
scalar Network.dyn_peer[311] 	lookupHopsSig:mean 	37.222222222222
scalar Network.dyn_peer[312] 	lookupTimeSig:mean 	3.05
scalar Network.dyn_peer[312] 	lookupStabilitySig:mean 	0.96960339468205
scalar Network.dyn_peer[312] 	lookupHopsSig:mean 	29.5625
scalar Network.dyn_peer[313] 	lookupTimeSig:mean 	4.525
scalar Network.dyn_peer[313] 	lookupStabilitySig:mean 	0.97428471334279
scalar Network.dyn_peer[313] 	lookupHopsSig:mean 	44.3
scalar Network.dyn_peer[314] 	lookupTimeSig:mean 	2.3882352941176
scalar Network.dyn_peer[314] 	lookupStabilitySig:mean 	0.97090005239143
scalar Network.dyn_peer[314] 	lookupHopsSig:mean 	22.941176470588
scalar Network.dyn_peer[315] 	lookupTimeSig:mean 	3.6939393939394
scalar Network.dyn_peer[315] 	lookupStabilitySig:mean 	0.97520129925882
scalar Network.dyn_peer[315] 	lookupHopsSig:mean 	35.969696969697
scalar Network.dyn_peer[316] 	lookupTimeSig:mean 	2.88
scalar Network.dyn_peer[316] 	lookupStabilitySig:mean 	0.97040327803697
scalar Network.dyn_peer[316] 	lookupHopsSig:mean 	27.84
scalar Network.dyn_peer[317] 	lookupTimeSig:mean 	4.1210526315789
scalar Network.dyn_peer[317] 	lookupStabilitySig:mean 	0.97609671359686
scalar Network.dyn_peer[317] 	lookupHopsSig:mean 	40.263157894737
scalar Network.dyn_peer[318] 	lookupTimeSig:mean 	3.3352941176471
scalar Network.dyn_peer[318] 	lookupStabilitySig:mean 	0.97143759353853
scalar Network.dyn_peer[318] 	lookupHopsSig:mean 	32.411764705882
scalar Network.dyn_peer[319] 	lookupTimeSig:mean 	4.1411764705882
scalar Network.dyn_peer[319] 	lookupStabilitySig:mean 	0.96594092274523
scalar Network.dyn_peer[319] 	lookupHopsSig:mean 	40.470588235294
scalar Network.dyn_peer[320] 	lookupTimeSig:mean 	3.2304347826087
scalar Network.dyn_peer[320] 	lookupStabilitySig:mean 	0.97354612169716
scalar Network.dyn_peer[320] 	lookupHopsSig:mean 	31.347826086957
scalar Network.dyn_peer[321] 	lookupTimeSig:mean 	2.03125
scalar Network.dyn_peer[321] 	lookupStabilitySig:mean 	0.96397147074458
scalar Network.dyn_peer[321] 	lookupHopsSig:mean 	19.375
scalar Network.dyn_peer[322] 	lookupTimeSig:mean 	2.4896551724138
scalar Network.dyn_peer[322] 	lookupStabilitySig:mean 	0.97611292390954
scalar Network.dyn_peer[322] 	lookupHopsSig:mean 	23.931034482759
scalar Network.dyn_peer[323] 	lookupTimeSig:mean 	4.7952380952381
scalar Network.dyn_peer[323] 	lookupStabilitySig:mean 	0.9669927646783
scalar Network.dyn_peer[323] 	lookupHopsSig:mean 	47
scalar Network.dyn_peer[324] 	lookupTimeSig:mean 	3.1454545454545
scalar Network.dyn_peer[324] 	lookupStabilitySig:mean 	0.95123892034065
scalar Network.dyn_peer[324] 	lookupHopsSig:mean 	30.545454545455
scalar Network.dyn_peer[325] 	lookupTimeSig:mean 	3.047619047619
scalar Network.dyn_peer[325] 	lookupStabilitySig:mean 	0.96802408883481
scalar Network.dyn_peer[325] 	lookupHopsSig:mean 	29.52380952381
scalar Network.dyn_peer[326] 	lookupTimeSig:mean 	4.2666666666667
scalar Network.dyn_peer[326] 	lookupStabilitySig:mean 	0.96676185473593
scalar Network.dyn_peer[326] 	lookupHopsSig:mean 	41.722222222222
scalar Network.dyn_peer[327] 	lookupTimeSig:mean 	2.7882352941176
scalar Network.dyn_peer[327] 	lookupStabilitySig:mean 	0.96330755362835
scalar Network.dyn_peer[327] 	lookupHopsSig:mean 	26.941176470588
scalar Network.dyn_peer[328] 	lookupTimeSig:mean 	1.6666666666667
scalar Network.dyn_peer[328] 	lookupStabilitySig:mean 	0.96368160241594
scalar Network.dyn_peer[328] 	lookupHopsSig:mean 	15.733333333333
scalar Network.dyn_peer[329] 	lookupTimeSig:mean 	3.25
scalar Network.dyn_peer[329] 	lookupStabilitySig:mean 	0.97569677865514
scalar Network.dyn_peer[329] 	lookupHopsSig:mean 	31.545454545455
scalar Network.dyn_peer[330] 	lookupTimeSig:mean 	4.1083333333333
scalar Network.dyn_peer[330] 	lookupStabilitySig:mean 	0.97170033107007
scalar Network.dyn_peer[330] 	lookupHopsSig:mean 	40.125
scalar Network.dyn_peer[331] 	lookupTimeSig:mean 	2.84
scalar Network.dyn_peer[331] 	lookupStabilitySig:mean 	0.96719967953977
scalar Network.dyn_peer[331] 	lookupHopsSig:mean 	27.45
scalar Network.dyn_peer[332] 	lookupTimeSig:mean 	3.6192307692308
scalar Network.dyn_peer[332] 	lookupStabilitySig:mean 	0.97925069830112
scalar Network.dyn_peer[332] 	lookupHopsSig:mean 	35.230769230769
scalar Network.dyn_peer[333] 	lookupTimeSig:mean 	3.2785714285714
scalar Network.dyn_peer[333] 	lookupStabilitySig:mean 	0.9648035341774
scalar Network.dyn_peer[333] 	lookupHopsSig:mean 	31.857142857143
scalar Network.dyn_peer[334] 	lookupTimeSig:mean 	3.6
scalar Network.dyn_peer[334] 	lookupStabilitySig:mean 	0.96547130888383
scalar Network.dyn_peer[334] 	lookupHopsSig:mean 	35.058823529412
scalar Network.dyn_peer[335] 	lookupTimeSig:mean 	2.8272727272727
scalar Network.dyn_peer[335] 	lookupStabilitySig:mean 	0.96820803161774
scalar Network.dyn_peer[335] 	lookupHopsSig:mean 	27.363636363636
scalar Network.dyn_peer[336] 	lookupTimeSig:mean 	2.9071428571429
scalar Network.dyn_peer[336] 	lookupStabilitySig:mean 	0.96946374619646
scalar Network.dyn_peer[336] 	lookupHopsSig:mean 	28.142857142857
scalar Network.dyn_peer[337] 	lookupTimeSig:mean 	3.4478260869565
scalar Network.dyn_peer[337] 	lookupStabilitySig:mean 	0.97563414452294
scalar Network.dyn_peer[337] 	lookupHopsSig:mean 	33.521739130435
scalar Network.dyn_peer[338] 	lookupTimeSig:mean 	3.2333333333333
scalar Network.dyn_peer[338] 	lookupStabilitySig:mean 	0.96752140808126
scalar Network.dyn_peer[338] 	lookupHopsSig:mean 	31.388888888889
scalar Network.dyn_peer[339] 	lookupTimeSig:mean 	4.3478260869565
scalar Network.dyn_peer[339] 	lookupStabilitySig:mean 	0.97395958587446
scalar Network.dyn_peer[339] 	lookupHopsSig:mean 	42.521739130435
scalar Network.dyn_peer[340] 	lookupTimeSig:mean 	3.3692307692308
scalar Network.dyn_peer[340] 	lookupStabilitySig:mean 	0.96695024921344
scalar Network.dyn_peer[340] 	lookupHopsSig:mean 	32.769230769231
scalar Network.dyn_peer[341] 	lookupTimeSig:mean 	2.17
scalar Network.dyn_peer[341] 	lookupStabilitySig:mean 	0.96915492643602
scalar Network.dyn_peer[341] 	lookupHopsSig:mean 	20.8
scalar Network.dyn_peer[342] 	lookupTimeSig:mean 	3.3352941176471
scalar Network.dyn_peer[342] 	lookupStabilitySig:mean 	0.97107375363874
scalar Network.dyn_peer[342] 	lookupHopsSig:mean 	32.411764705882
scalar Network.dyn_peer[343] 	lookupTimeSig:mean 	3.595652173913
scalar Network.dyn_peer[343] 	lookupStabilitySig:mean 	0.96878217391508
scalar Network.dyn_peer[343] 	lookupHopsSig:mean 	35
scalar Network.dyn_peer[344] 	lookupTimeSig:mean 	4.75
scalar Network.dyn_peer[344] 	lookupStabilitySig:mean 	0.94512839992531
scalar Network.dyn_peer[344] 	lookupHopsSig:mean 	46.6
scalar Network.dyn_peer[345] 	lookupTimeSig:mean 	3.764
scalar Network.dyn_peer[345] 	lookupStabilitySig:mean 	0.97431980350055
scalar Network.dyn_peer[345] 	lookupHopsSig:mean 	36.68
scalar Network.dyn_peer[346] 	lookupTimeSig:mean 	2.6111111111111
scalar Network.dyn_peer[346] 	lookupStabilitySig:mean 	0.970578276604
scalar Network.dyn_peer[346] 	lookupHopsSig:mean 	25.166666666667
scalar Network.dyn_peer[347] 	lookupTimeSig:mean 	3.8227272727273
scalar Network.dyn_peer[347] 	lookupStabilitySig:mean 	0.97080171836371
scalar Network.dyn_peer[347] 	lookupHopsSig:mean 	37.272727272727
scalar Network.dyn_peer[348] 	lookupTimeSig:mean 	2.975
scalar Network.dyn_peer[348] 	lookupStabilitySig:mean 	0.96707271233511
scalar Network.dyn_peer[348] 	lookupHopsSig:mean 	28.833333333333
scalar Network.dyn_peer[349] 	lookupTimeSig:mean 	3.448
scalar Network.dyn_peer[349] 	lookupStabilitySig:mean 	0.97452335353941
scalar Network.dyn_peer[349] 	lookupHopsSig:mean 	33.52
scalar Network.dyn_peer[350] 	lookupTimeSig:mean 	3.4931034482759
scalar Network.dyn_peer[350] 	lookupStabilitySig:mean 	0.97510753475643
scalar Network.dyn_peer[350] 	lookupHopsSig:mean 	33.965517241379
scalar Network.dyn_peer[351] 	lookupTimeSig:mean 	2.7
scalar Network.dyn_peer[351] 	lookupStabilitySig:mean 	0.97577287995308
scalar Network.dyn_peer[351] 	lookupHopsSig:mean 	26.055555555556
scalar Network.dyn_peer[352] 	lookupTimeSig:mean 	3.2428571428571
scalar Network.dyn_peer[352] 	lookupStabilitySig:mean 	0.97020433465063
scalar Network.dyn_peer[352] 	lookupHopsSig:mean 	31.47619047619
scalar Network.dyn_peer[353] 	lookupTimeSig:mean 	3.7272727272727
scalar Network.dyn_peer[353] 	lookupStabilitySig:mean 	0.9723554071547
scalar Network.dyn_peer[353] 	lookupHopsSig:mean 	36.318181818182
scalar Network.dyn_peer[354] 	lookupTimeSig:mean 	2.955
scalar Network.dyn_peer[354] 	lookupStabilitySig:mean 	0.96924188972916
scalar Network.dyn_peer[354] 	lookupHopsSig:mean 	28.6
scalar Network.dyn_peer[355] 	lookupTimeSig:mean 	2.45
scalar Network.dyn_peer[355] 	lookupStabilitySig:mean 	0.95764181596072
scalar Network.dyn_peer[355] 	lookupHopsSig:mean 	23.666666666667
scalar Network.dyn_peer[356] 	lookupTimeSig:mean 	2.7888888888889
scalar Network.dyn_peer[356] 	lookupStabilitySig:mean 	0.96963979614278
scalar Network.dyn_peer[356] 	lookupHopsSig:mean 	27
scalar Network.dyn_peer[357] 	lookupTimeSig:mean 	4.1529411764706
scalar Network.dyn_peer[357] 	lookupStabilitySig:mean 	0.96492454597233
scalar Network.dyn_peer[357] 	lookupHopsSig:mean 	40.588235294118
scalar Network.dyn_peer[358] 	lookupTimeSig:mean 	1.8117647058824
scalar Network.dyn_peer[358] 	lookupStabilitySig:mean 	0.97547451742952
scalar Network.dyn_peer[358] 	lookupHopsSig:mean 	17.176470588235
scalar Network.dyn_peer[359] 	lookupTimeSig:mean 	4.3913043478261
scalar Network.dyn_peer[359] 	lookupStabilitySig:mean 	0.97830272035714
scalar Network.dyn_peer[359] 	lookupHopsSig:mean 	42.95652173913
scalar Network.dyn_peer[360] 	lookupTimeSig:mean 	3.3461538461538
scalar Network.dyn_peer[360] 	lookupStabilitySig:mean 	0.96520377609592
scalar Network.dyn_peer[360] 	lookupHopsSig:mean 	32.538461538462
scalar Network.dyn_peer[361] 	lookupTimeSig:mean 	3.1428571428571
scalar Network.dyn_peer[361] 	lookupStabilitySig:mean 	0.95698199580823
scalar Network.dyn_peer[361] 	lookupHopsSig:mean 	30.5
scalar Network.dyn_peer[362] 	lookupTimeSig:mean 	2.7388888888889
scalar Network.dyn_peer[362] 	lookupStabilitySig:mean 	0.96971153974947
scalar Network.dyn_peer[362] 	lookupHopsSig:mean 	26.444444444444
scalar Network.dyn_peer[363] 	lookupTimeSig:mean 	2.2
scalar Network.dyn_peer[363] 	lookupStabilitySig:mean 	0.97165937127505
scalar Network.dyn_peer[363] 	lookupHopsSig:mean 	21.04347826087
scalar Network.dyn_peer[364] 	lookupTimeSig:mean 	4.3157894736842
scalar Network.dyn_peer[364] 	lookupStabilitySig:mean 	0.97895166778471
scalar Network.dyn_peer[364] 	lookupHopsSig:mean 	42.210526315789
scalar Network.dyn_peer[365] 	lookupTimeSig:mean 	3.2304347826087
scalar Network.dyn_peer[365] 	lookupStabilitySig:mean 	0.97957296144602
scalar Network.dyn_peer[365] 	lookupHopsSig:mean 	31.347826086957
scalar Network.dyn_peer[366] 	lookupTimeSig:mean 	2.9785714285714
scalar Network.dyn_peer[366] 	lookupStabilitySig:mean 	0.97420360793227
scalar Network.dyn_peer[366] 	lookupHopsSig:mean 	28.821428571429
scalar Network.dyn_peer[367] 	lookupTimeSig:mean 	3.7689655172414
scalar Network.dyn_peer[367] 	lookupStabilitySig:mean 	0.97797688737548
scalar Network.dyn_peer[367] 	lookupHopsSig:mean 	36.724137931034
scalar Network.dyn_peer[368] 	lookupTimeSig:mean 	4.1545454545455
scalar Network.dyn_peer[368] 	lookupStabilitySig:mean 	0.9787108013036
scalar Network.dyn_peer[368] 	lookupHopsSig:mean 	40.590909090909
scalar Network.dyn_peer[369] 	lookupTimeSig:mean 	2.8666666666667
scalar Network.dyn_peer[369] 	lookupStabilitySig:mean 	0.96975200123464
scalar Network.dyn_peer[369] 	lookupHopsSig:mean 	27.733333333333
scalar Network.dyn_peer[370] 	lookupTimeSig:mean 	4.0227272727273
scalar Network.dyn_peer[370] 	lookupStabilitySig:mean 	0.97390081293204
scalar Network.dyn_peer[370] 	lookupHopsSig:mean 	39.272727272727
scalar Network.dyn_peer[371] 	lookupTimeSig:mean 	3.395
scalar Network.dyn_peer[371] 	lookupStabilitySig:mean 	0.97095692172879
scalar Network.dyn_peer[371] 	lookupHopsSig:mean 	33
scalar Network.dyn_peer[372] 	lookupTimeSig:mean 	5.66
scalar Network.dyn_peer[372] 	lookupStabilitySig:mean 	0.95970203909092
scalar Network.dyn_peer[372] 	lookupHopsSig:mean 	55.7
scalar Network.dyn_peer[373] 	lookupTimeSig:mean 	4.4666666666667
scalar Network.dyn_peer[373] 	lookupStabilitySig:mean 	0.97027432143999
scalar Network.dyn_peer[373] 	lookupHopsSig:mean 	43.733333333333
scalar Network.dyn_peer[374] 	lookupTimeSig:mean 	3.6173913043478
scalar Network.dyn_peer[374] 	lookupStabilitySig:mean 	0.97384119525162
scalar Network.dyn_peer[374] 	lookupHopsSig:mean 	35.217391304348
scalar Network.dyn_peer[375] 	lookupTimeSig:mean 	2.88
scalar Network.dyn_peer[375] 	lookupStabilitySig:mean 	0.97835683058132
scalar Network.dyn_peer[375] 	lookupHopsSig:mean 	27.84
scalar Network.dyn_peer[376] 	lookupTimeSig:mean 	3.6947368421053
scalar Network.dyn_peer[376] 	lookupStabilitySig:mean 	0.97301611912094
scalar Network.dyn_peer[376] 	lookupHopsSig:mean 	36
scalar Network.dyn_peer[377] 	lookupTimeSig:mean 	2.79375
scalar Network.dyn_peer[377] 	lookupStabilitySig:mean 	0.9641804247949
scalar Network.dyn_peer[377] 	lookupHopsSig:mean 	27
scalar Network.dyn_peer[378] 	lookupTimeSig:mean 	3.1
scalar Network.dyn_peer[378] 	lookupStabilitySig:mean 	0.97000808243174
scalar Network.dyn_peer[378] 	lookupHopsSig:mean 	30.1
scalar Network.dyn_peer[379] 	lookupTimeSig:mean 	3.3611111111111
scalar Network.dyn_peer[379] 	lookupStabilitySig:mean 	0.96456339991548
scalar Network.dyn_peer[379] 	lookupHopsSig:mean 	32.666666666667
scalar Network.dyn_peer[380] 	lookupTimeSig:mean 	2.7666666666667
scalar Network.dyn_peer[380] 	lookupStabilitySig:mean 	0.95323001117342
scalar Network.dyn_peer[380] 	lookupHopsSig:mean 	26.777777777778
scalar Network.dyn_peer[381] 	lookupTimeSig:mean 	3.2678571428571
scalar Network.dyn_peer[381] 	lookupStabilitySig:mean 	0.98197427927724
scalar Network.dyn_peer[381] 	lookupHopsSig:mean 	31.714285714286
scalar Network.dyn_peer[382] 	lookupTimeSig:mean 	3.1166666666667
scalar Network.dyn_peer[382] 	lookupStabilitySig:mean 	0.97216055500838
scalar Network.dyn_peer[382] 	lookupHopsSig:mean 	30.222222222222
scalar Network.dyn_peer[383] 	lookupTimeSig:mean 	2.5181818181818
scalar Network.dyn_peer[383] 	lookupStabilitySig:mean 	0.97682065072215
scalar Network.dyn_peer[383] 	lookupHopsSig:mean 	24.227272727273
scalar Network.dyn_peer[384] 	lookupTimeSig:mean 	3.8333333333333
scalar Network.dyn_peer[384] 	lookupStabilitySig:mean 	0.97003765067174
scalar Network.dyn_peer[384] 	lookupHopsSig:mean 	37.380952380952
scalar Network.dyn_peer[385] 	lookupTimeSig:mean 	3.0615384615385
scalar Network.dyn_peer[385] 	lookupStabilitySig:mean 	0.96824973461648
scalar Network.dyn_peer[385] 	lookupHopsSig:mean 	29.692307692308
scalar Network.dyn_peer[386] 	lookupTimeSig:mean 	4.5272727272727
scalar Network.dyn_peer[386] 	lookupStabilitySig:mean 	0.98179955002111
scalar Network.dyn_peer[386] 	lookupHopsSig:mean 	44.318181818182
scalar Network.dyn_peer[387] 	lookupTimeSig:mean 	3.1227272727273
scalar Network.dyn_peer[387] 	lookupStabilitySig:mean 	0.97067553626204
scalar Network.dyn_peer[387] 	lookupHopsSig:mean 	30.272727272727
scalar Network.dyn_peer[388] 	lookupTimeSig:mean 	4.0733333333333
scalar Network.dyn_peer[388] 	lookupStabilitySig:mean 	0.96324386969209
scalar Network.dyn_peer[388] 	lookupHopsSig:mean 	39.8
scalar Network.dyn_peer[389] 	lookupTimeSig:mean 	2.85
scalar Network.dyn_peer[389] 	lookupStabilitySig:mean 	0.9668105901607
scalar Network.dyn_peer[389] 	lookupHopsSig:mean 	27.583333333333
scalar Network.dyn_peer[390] 	lookupTimeSig:mean 	3.3882352941176
scalar Network.dyn_peer[390] 	lookupStabilitySig:mean 	0.96509097250836
scalar Network.dyn_peer[390] 	lookupHopsSig:mean 	32.941176470588
scalar Network.dyn_peer[391] 	lookupTimeSig:mean 	4.4333333333333
scalar Network.dyn_peer[391] 	lookupStabilitySig:mean 	0.96809487342317
scalar Network.dyn_peer[391] 	lookupHopsSig:mean 	43.388888888889
scalar Network.dyn_peer[392] 	lookupTimeSig:mean 	4.7210526315789
scalar Network.dyn_peer[392] 	lookupStabilitySig:mean 	0.97048913545318
scalar Network.dyn_peer[392] 	lookupHopsSig:mean 	46.263157894737
scalar Network.dyn_peer[393] 	lookupTimeSig:mean 	3.4769230769231
scalar Network.dyn_peer[393] 	lookupStabilitySig:mean 	0.96549577086877
scalar Network.dyn_peer[393] 	lookupHopsSig:mean 	33.846153846154
scalar Network.dyn_peer[394] 	lookupTimeSig:mean 	3.6086956521739
scalar Network.dyn_peer[394] 	lookupStabilitySig:mean 	0.97891464029722
scalar Network.dyn_peer[394] 	lookupHopsSig:mean 	35.130434782609
scalar Network.dyn_peer[395] 	lookupTimeSig:mean 	3.4
scalar Network.dyn_peer[395] 	lookupStabilitySig:mean 	0.95613318182189
scalar Network.dyn_peer[395] 	lookupHopsSig:mean 	33.090909090909
scalar Network.dyn_peer[396] 	lookupTimeSig:mean 	3.5652173913043
scalar Network.dyn_peer[396] 	lookupStabilitySig:mean 	0.97296665680251
scalar Network.dyn_peer[396] 	lookupHopsSig:mean 	34.695652173913
scalar Network.dyn_peer[397] 	lookupTimeSig:mean 	4.0739130434783
scalar Network.dyn_peer[397] 	lookupStabilitySig:mean 	0.97856835414669
scalar Network.dyn_peer[397] 	lookupHopsSig:mean 	39.782608695652
scalar Network.dyn_peer[398] 	lookupTimeSig:mean 	2.1125
scalar Network.dyn_peer[398] 	lookupStabilitySig:mean 	0.97472477363772
scalar Network.dyn_peer[398] 	lookupHopsSig:mean 	20.1875
scalar Network.dyn_peer[399] 	lookupTimeSig:mean 	2.9333333333333
scalar Network.dyn_peer[399] 	lookupStabilitySig:mean 	0.97592433290889
scalar Network.dyn_peer[399] 	lookupHopsSig:mean 	28.380952380952
scalar Network.dyn_peer[400] 	lookupTimeSig:mean 	3.5238095238095
scalar Network.dyn_peer[400] 	lookupStabilitySig:mean 	0.98129746248569
scalar Network.dyn_peer[400] 	lookupHopsSig:mean 	34.285714285714
scalar Network.dyn_peer[401] 	lookupTimeSig:mean 	3.45
scalar Network.dyn_peer[401] 	lookupStabilitySig:mean 	0.98098581270526
scalar Network.dyn_peer[401] 	lookupHopsSig:mean 	33.545454545455
scalar Network.dyn_peer[402] 	lookupTimeSig:mean 	3.5
scalar Network.dyn_peer[402] 	lookupStabilitySig:mean 	0.9748840987655
scalar Network.dyn_peer[402] 	lookupHopsSig:mean 	34.058823529412
scalar Network.dyn_peer[403] 	lookupTimeSig:mean 	2.9826086956522
scalar Network.dyn_peer[403] 	lookupStabilitySig:mean 	0.97320048603148
scalar Network.dyn_peer[403] 	lookupHopsSig:mean 	28.869565217391
[...]
scalar Network.dyn_peer[9899] 	lookupHopsSig:mean 	57.5
scalar Network.dyn_peer[9900] 	lookupTimeSig:mean 	6.8909090909091
scalar Network.dyn_peer[9900] 	lookupStabilitySig:mean 	0.99237918070602
scalar Network.dyn_peer[9900] 	lookupHopsSig:mean 	68
scalar Network.dyn_peer[9901] 	lookupTimeSig:mean 	7.0571428571429
scalar Network.dyn_peer[9901] 	lookupStabilitySig:mean 	0.99188070508119
scalar Network.dyn_peer[9901] 	lookupHopsSig:mean 	69.714285714286
scalar Network.dyn_peer[9902] 	lookupTimeSig:mean 	5.5
scalar Network.dyn_peer[9902] 	lookupStabilitySig:mean 	0.99383366079366
scalar Network.dyn_peer[9902] 	lookupHopsSig:mean 	54.090909090909
scalar Network.dyn_peer[9903] 	lookupTimeSig:mean 	4.7444444444444
scalar Network.dyn_peer[9903] 	lookupStabilitySig:mean 	0.99443374817363
scalar Network.dyn_peer[9903] 	lookupHopsSig:mean 	46.555555555556
scalar Network.dyn_peer[9904] 	lookupTimeSig:mean 	6.425
scalar Network.dyn_peer[9904] 	lookupStabilitySig:mean 	0.9917571505066
scalar Network.dyn_peer[9904] 	lookupHopsSig:mean 	63.5
scalar Network.dyn_peer[9905] 	lookupTimeSig:mean 	4.1333333333333
scalar Network.dyn_peer[9905] 	lookupStabilitySig:mean 	0.99430291711663
scalar Network.dyn_peer[9905] 	lookupHopsSig:mean 	40.666666666667
scalar Network.dyn_peer[9906] 	lookupTimeSig:mean 	5.8636363636364
scalar Network.dyn_peer[9906] 	lookupStabilitySig:mean 	0.9933965107934
scalar Network.dyn_peer[9906] 	lookupHopsSig:mean 	57.727272727273
scalar Network.dyn_peer[9907] 	lookupTimeSig:mean 	8.1
scalar Network.dyn_peer[9907] 	lookupStabilitySig:mean 	0.9905108182691
scalar Network.dyn_peer[9907] 	lookupHopsSig:mean 	80.2
scalar Network.dyn_peer[9908] 	lookupTimeSig:mean 	3.425
scalar Network.dyn_peer[9908] 	lookupStabilitySig:mean 	0.99568758859459
scalar Network.dyn_peer[9908] 	lookupHopsSig:mean 	33.375
scalar Network.dyn_peer[9909] 	lookupTimeSig:mean 	5.1
scalar Network.dyn_peer[9909] 	lookupStabilitySig:mean 	0.99375596709017
scalar Network.dyn_peer[9909] 	lookupHopsSig:mean 	50.142857142857
scalar Network.dyn_peer[9910] 	lookupTimeSig:mean 	5.4857142857143
scalar Network.dyn_peer[9910] 	lookupStabilitySig:mean 	0.99336212135053
scalar Network.dyn_peer[9910] 	lookupHopsSig:mean 	54
scalar Network.dyn_peer[9911] 	lookupTimeSig:mean 	5.68
scalar Network.dyn_peer[9911] 	lookupStabilitySig:mean 	0.99345289536286
scalar Network.dyn_peer[9911] 	lookupHopsSig:mean 	55.9
scalar Network.dyn_peer[9912] 	lookupTimeSig:mean 	4.5428571428571
scalar Network.dyn_peer[9912] 	lookupStabilitySig:mean 	0.99443393716189
scalar Network.dyn_peer[9912] 	lookupHopsSig:mean 	44.571428571429
scalar Network.dyn_peer[9913] 	lookupTimeSig:mean 	5.7916666666667
scalar Network.dyn_peer[9913] 	lookupStabilitySig:mean 	0.99351306582685
scalar Network.dyn_peer[9913] 	lookupHopsSig:mean 	57
scalar Network.dyn_peer[9914] 	lookupTimeSig:mean 	5.43
scalar Network.dyn_peer[9914] 	lookupStabilitySig:mean 	0.99375047346111
scalar Network.dyn_peer[9914] 	lookupHopsSig:mean 	53.4
scalar Network.dyn_peer[9915] 	lookupTimeSig:mean 	5.9285714285714
scalar Network.dyn_peer[9915] 	lookupStabilitySig:mean 	0.99285414808297
scalar Network.dyn_peer[9915] 	lookupHopsSig:mean 	58.428571428571
scalar Network.dyn_peer[9916] 	lookupTimeSig:mean 	5.85
scalar Network.dyn_peer[9916] 	lookupStabilitySig:mean 	0.99341470703948
scalar Network.dyn_peer[9916] 	lookupHopsSig:mean 	57.6
scalar Network.dyn_peer[9917] 	lookupTimeSig:mean 	6.7142857142857
scalar Network.dyn_peer[9917] 	lookupStabilitySig:mean 	0.99205374318574
scalar Network.dyn_peer[9917] 	lookupHopsSig:mean 	66.285714285714
scalar Network.dyn_peer[9918] 	lookupTimeSig:mean 	9.7
scalar Network.dyn_peer[9918] 	lookupStabilitySig:mean 	0.98742558434606
scalar Network.dyn_peer[9918] 	lookupHopsSig:mean 	96.5
scalar Network.dyn_peer[9919] 	lookupTimeSig:mean 	10.5
scalar Network.dyn_peer[9919] 	lookupStabilitySig:mean 	0.98771194647998
scalar Network.dyn_peer[9919] 	lookupHopsSig:mean 	104.25
scalar Network.dyn_peer[9920] 	lookupTimeSig:mean 	6.1428571428571
scalar Network.dyn_peer[9920] 	lookupStabilitySig:mean 	0.99269901402295
scalar Network.dyn_peer[9920] 	lookupHopsSig:mean 	60.571428571429
scalar Network.dyn_peer[9921] 	lookupTimeSig:mean 	5.825
scalar Network.dyn_peer[9921] 	lookupStabilitySig:mean 	0.99246399838012
scalar Network.dyn_peer[9921] 	lookupHopsSig:mean 	57.5
scalar Network.dyn_peer[9922] 	lookupTimeSig:mean 	5.6428571428571
scalar Network.dyn_peer[9922] 	lookupStabilitySig:mean 	0.99317264347337
scalar Network.dyn_peer[9922] 	lookupHopsSig:mean 	55.571428571429
scalar Network.dyn_peer[9923] 	lookupTimeSig:mean 	5.6
scalar Network.dyn_peer[9923] 	lookupStabilitySig:mean 	0.99229775252752
scalar Network.dyn_peer[9923] 	lookupHopsSig:mean 	55.5
scalar Network.dyn_peer[9924] 	lookupTimeSig:mean 	3.7818181818182
scalar Network.dyn_peer[9924] 	lookupStabilitySig:mean 	0.99546661902621
scalar Network.dyn_peer[9924] 	lookupHopsSig:mean 	36.909090909091
scalar Network.dyn_peer[9925] 	lookupTimeSig:mean 	3.3818181818182
scalar Network.dyn_peer[9925] 	lookupStabilitySig:mean 	0.99587936344324
scalar Network.dyn_peer[9925] 	lookupHopsSig:mean 	32.909090909091
scalar Network.dyn_peer[9926] 	lookupTimeSig:mean 	6.25
scalar Network.dyn_peer[9926] 	lookupStabilitySig:mean 	0.99243881479682
scalar Network.dyn_peer[9926] 	lookupHopsSig:mean 	61.666666666667
scalar Network.dyn_peer[9927] 	lookupTimeSig:mean 	6.9285714285714
scalar Network.dyn_peer[9927] 	lookupStabilitySig:mean 	0.99186997025806
scalar Network.dyn_peer[9927] 	lookupHopsSig:mean 	68.428571428571
scalar Network.dyn_peer[9928] 	lookupTimeSig:mean 	5.7666666666667
scalar Network.dyn_peer[9928] 	lookupStabilitySig:mean 	0.99298368576759
scalar Network.dyn_peer[9928] 	lookupHopsSig:mean 	56.833333333333
scalar Network.dyn_peer[9929] 	lookupTimeSig:mean 	5.1333333333333
scalar Network.dyn_peer[9929] 	lookupStabilitySig:mean 	0.99429609757499
scalar Network.dyn_peer[9929] 	lookupHopsSig:mean 	50.416666666667
scalar Network.dyn_peer[9930] 	lookupTimeSig:mean 	4.8666666666667
scalar Network.dyn_peer[9930] 	lookupStabilitySig:mean 	0.99417938545553
scalar Network.dyn_peer[9930] 	lookupHopsSig:mean 	47.777777777778
scalar Network.dyn_peer[9931] 	lookupTimeSig:mean 	5.0083333333333
scalar Network.dyn_peer[9931] 	lookupStabilitySig:mean 	0.99432873549328
scalar Network.dyn_peer[9931] 	lookupHopsSig:mean 	49.166666666667
scalar Network.dyn_peer[9932] 	lookupTimeSig:mean 	6.0285714285714
scalar Network.dyn_peer[9932] 	lookupStabilitySig:mean 	0.99288518946352
scalar Network.dyn_peer[9932] 	lookupHopsSig:mean 	59.428571428571
scalar Network.dyn_peer[9933] 	lookupTimeSig:mean 	6.0666666666667
scalar Network.dyn_peer[9933] 	lookupStabilitySig:mean 	0.99198256145852
scalar Network.dyn_peer[9933] 	lookupHopsSig:mean 	60
scalar Network.dyn_peer[9934] 	lookupTimeSig:mean 	4.6714285714286
scalar Network.dyn_peer[9934] 	lookupStabilitySig:mean 	0.99421745758238
scalar Network.dyn_peer[9934] 	lookupHopsSig:mean 	45.857142857143
scalar Network.dyn_peer[9935] 	lookupTimeSig:mean 	7.0555555555556
scalar Network.dyn_peer[9935] 	lookupStabilitySig:mean 	0.99204383997454
scalar Network.dyn_peer[9935] 	lookupHopsSig:mean 	69.666666666667
scalar Network.dyn_peer[9936] 	lookupTimeSig:mean 	3.7285714285714
scalar Network.dyn_peer[9936] 	lookupStabilitySig:mean 	0.9952723109496
scalar Network.dyn_peer[9936] 	lookupHopsSig:mean 	36.428571428571
scalar Network.dyn_peer[9937] 	lookupTimeSig:mean 	5.7714285714286
scalar Network.dyn_peer[9937] 	lookupStabilitySig:mean 	0.99303337958242
scalar Network.dyn_peer[9937] 	lookupHopsSig:mean 	56.857142857143
scalar Network.dyn_peer[9938] 	lookupTimeSig:mean 	4.4636363636364
scalar Network.dyn_peer[9938] 	lookupStabilitySig:mean 	0.99478601021904
scalar Network.dyn_peer[9938] 	lookupHopsSig:mean 	43.727272727273
scalar Network.dyn_peer[9939] 	lookupTimeSig:mean 	4.4625
scalar Network.dyn_peer[9939] 	lookupStabilitySig:mean 	0.99454559446895
scalar Network.dyn_peer[9939] 	lookupHopsSig:mean 	43.75
scalar Network.dyn_peer[9940] 	lookupTimeSig:mean 	5.4888888888889
scalar Network.dyn_peer[9940] 	lookupStabilitySig:mean 	0.99359652801003
scalar Network.dyn_peer[9940] 	lookupHopsSig:mean 	54
scalar Network.dyn_peer[9941] 	lookupTimeSig:mean 	4.9166666666667
scalar Network.dyn_peer[9941] 	lookupStabilitySig:mean 	0.99381648473597
scalar Network.dyn_peer[9941] 	lookupHopsSig:mean 	48.333333333333
scalar Network.dyn_peer[9942] 	lookupTimeSig:mean 	4.8888888888889
scalar Network.dyn_peer[9942] 	lookupStabilitySig:mean 	0.99420647434373
scalar Network.dyn_peer[9942] 	lookupHopsSig:mean 	48
scalar Network.dyn_peer[9943] 	lookupTimeSig:mean 	5.5
scalar Network.dyn_peer[9943] 	lookupStabilitySig:mean 	0.99284464097582
scalar Network.dyn_peer[9943] 	lookupHopsSig:mean 	54.25
scalar Network.dyn_peer[9944] 	lookupTimeSig:mean 	4.59
scalar Network.dyn_peer[9944] 	lookupStabilitySig:mean 	0.99459308409132
scalar Network.dyn_peer[9944] 	lookupHopsSig:mean 	45
scalar Network.dyn_peer[9945] 	lookupTimeSig:mean 	4.75
scalar Network.dyn_peer[9945] 	lookupStabilitySig:mean 	0.99442110534292
scalar Network.dyn_peer[9945] 	lookupHopsSig:mean 	46.6
scalar Network.dyn_peer[9946] 	lookupTimeSig:mean 	4.1714285714286
scalar Network.dyn_peer[9946] 	lookupStabilitySig:mean 	0.99475591195681
scalar Network.dyn_peer[9946] 	lookupHopsSig:mean 	40.857142857143
scalar Network.dyn_peer[9947] 	lookupTimeSig:mean 	5.9714285714286
scalar Network.dyn_peer[9947] 	lookupStabilitySig:mean 	0.99282926287768
scalar Network.dyn_peer[9947] 	lookupHopsSig:mean 	58.857142857143
scalar Network.dyn_peer[9948] 	lookupTimeSig:mean 	4.7545454545455
scalar Network.dyn_peer[9948] 	lookupStabilitySig:mean 	0.99446751863103
scalar Network.dyn_peer[9948] 	lookupHopsSig:mean 	46.636363636364
scalar Network.dyn_peer[9949] 	lookupTimeSig:mean 	5.2857142857143
scalar Network.dyn_peer[9949] 	lookupStabilitySig:mean 	0.99354210665583
scalar Network.dyn_peer[9949] 	lookupHopsSig:mean 	52
scalar Network.dyn_peer[9950] 	lookupTimeSig:mean 	5.58
scalar Network.dyn_peer[9950] 	lookupStabilitySig:mean 	0.99300121716224
scalar Network.dyn_peer[9950] 	lookupHopsSig:mean 	55
scalar Network.dyn_peer[9951] 	lookupTimeSig:mean 	5.6
scalar Network.dyn_peer[9951] 	lookupStabilitySig:mean 	0.99381813398629
scalar Network.dyn_peer[9951] 	lookupHopsSig:mean 	55.071428571429
scalar Network.dyn_peer[9952] 	lookupTimeSig:mean 	6.5571428571429
scalar Network.dyn_peer[9952] 	lookupStabilitySig:mean 	0.99223424294697
scalar Network.dyn_peer[9952] 	lookupHopsSig:mean 	64.714285714286
scalar Network.dyn_peer[9953] 	lookupTimeSig:mean 	6.9
scalar Network.dyn_peer[9953] 	lookupStabilitySig:mean 	0.99209131344521
scalar Network.dyn_peer[9953] 	lookupHopsSig:mean 	68.142857142857
scalar Network.dyn_peer[9954] 	lookupTimeSig:mean 	6.0285714285714
scalar Network.dyn_peer[9954] 	lookupStabilitySig:mean 	0.99278989983057
scalar Network.dyn_peer[9954] 	lookupHopsSig:mean 	59.428571428571
scalar Network.dyn_peer[9955] 	lookupTimeSig:mean 	4.8875
scalar Network.dyn_peer[9955] 	lookupStabilitySig:mean 	0.99411835105275
scalar Network.dyn_peer[9955] 	lookupHopsSig:mean 	48
scalar Network.dyn_peer[9956] 	lookupTimeSig:mean 	5.2615384615385
scalar Network.dyn_peer[9956] 	lookupStabilitySig:mean 	0.99409618359417
scalar Network.dyn_peer[9956] 	lookupHopsSig:mean 	51.692307692308
scalar Network.dyn_peer[9957] 	lookupTimeSig:mean 	5.1875
scalar Network.dyn_peer[9957] 	lookupStabilitySig:mean 	0.9938280654751
scalar Network.dyn_peer[9957] 	lookupHopsSig:mean 	51
scalar Network.dyn_peer[9958] 	lookupTimeSig:mean 	3.825
scalar Network.dyn_peer[9958] 	lookupStabilitySig:mean 	0.99486314470414
scalar Network.dyn_peer[9958] 	lookupHopsSig:mean 	37.5
scalar Network.dyn_peer[9959] 	lookupTimeSig:mean 	5.7571428571429
scalar Network.dyn_peer[9959] 	lookupStabilitySig:mean 	0.99308812827803
scalar Network.dyn_peer[9959] 	lookupHopsSig:mean 	56.714285714286
scalar Network.dyn_peer[9960] 	lookupTimeSig:mean 	4.44
scalar Network.dyn_peer[9960] 	lookupStabilitySig:mean 	0.99475745761301
scalar Network.dyn_peer[9960] 	lookupHopsSig:mean 	43.5
scalar Network.dyn_peer[9961] 	lookupTimeSig:mean 	5.2142857142857
scalar Network.dyn_peer[9961] 	lookupStabilitySig:mean 	0.9936230264471
scalar Network.dyn_peer[9961] 	lookupHopsSig:mean 	51.285714285714
scalar Network.dyn_peer[9962] 	lookupTimeSig:mean 	3.35
scalar Network.dyn_peer[9962] 	lookupStabilitySig:mean 	0.99575598494266
scalar Network.dyn_peer[9962] 	lookupHopsSig:mean 	32.625
scalar Network.dyn_peer[9963] 	lookupTimeSig:mean 	5.1076923076923
scalar Network.dyn_peer[9963] 	lookupStabilitySig:mean 	0.9942575697608
scalar Network.dyn_peer[9963] 	lookupHopsSig:mean 	50.153846153846
scalar Network.dyn_peer[9964] 	lookupTimeSig:mean 	4.6
scalar Network.dyn_peer[9964] 	lookupStabilitySig:mean 	0.99441304606444
scalar Network.dyn_peer[9964] 	lookupHopsSig:mean 	45.125
scalar Network.dyn_peer[9965] 	lookupTimeSig:mean 	3.9909090909091
scalar Network.dyn_peer[9965] 	lookupStabilitySig:mean 	0.99532110754543
scalar Network.dyn_peer[9965] 	lookupHopsSig:mean 	39
scalar Network.dyn_peer[9966] 	lookupTimeSig:mean 	2.8416666666667
scalar Network.dyn_peer[9966] 	lookupStabilitySig:mean 	0.99651827841202
scalar Network.dyn_peer[9966] 	lookupHopsSig:mean 	27.5
scalar Network.dyn_peer[9967] 	lookupTimeSig:mean 	5.8777777777778
scalar Network.dyn_peer[9967] 	lookupStabilitySig:mean 	0.99319747768136
scalar Network.dyn_peer[9967] 	lookupHopsSig:mean 	57.888888888889
scalar Network.dyn_peer[9968] 	lookupTimeSig:mean 	5.0333333333333
scalar Network.dyn_peer[9968] 	lookupStabilitySig:mean 	0.99322886811569
scalar Network.dyn_peer[9968] 	lookupHopsSig:mean 	49.666666666667
scalar Network.dyn_peer[9969] 	lookupTimeSig:mean 	5.85
scalar Network.dyn_peer[9969] 	lookupStabilitySig:mean 	0.99334944114089
scalar Network.dyn_peer[9969] 	lookupHopsSig:mean 	57.6
scalar Network.dyn_peer[9970] 	lookupTimeSig:mean 	5.45
scalar Network.dyn_peer[9970] 	lookupStabilitySig:mean 	0.99295439448906
scalar Network.dyn_peer[9970] 	lookupHopsSig:mean 	53.75
scalar Network.dyn_peer[9971] 	lookupTimeSig:mean 	6.2833333333333
scalar Network.dyn_peer[9971] 	lookupStabilitySig:mean 	0.99306390374356
scalar Network.dyn_peer[9971] 	lookupHopsSig:mean 	61.916666666667
scalar Network.dyn_peer[9972] 	lookupTimeSig:mean 	4.5142857142857
scalar Network.dyn_peer[9972] 	lookupStabilitySig:mean 	0.99440113652963
scalar Network.dyn_peer[9972] 	lookupHopsSig:mean 	44.285714285714
scalar Network.dyn_peer[9973] 	lookupTimeSig:mean 	6.3727272727273
scalar Network.dyn_peer[9973] 	lookupStabilitySig:mean 	0.99288191842127
scalar Network.dyn_peer[9973] 	lookupHopsSig:mean 	62.818181818182
scalar Network.dyn_peer[9974] 	lookupTimeSig:mean 	3.7714285714286
scalar Network.dyn_peer[9974] 	lookupStabilitySig:mean 	0.99520786941451
scalar Network.dyn_peer[9974] 	lookupHopsSig:mean 	36.857142857143
scalar Network.dyn_peer[9975] 	lookupTimeSig:mean 	5.4375
scalar Network.dyn_peer[9975] 	lookupStabilitySig:mean 	0.99358207566547
scalar Network.dyn_peer[9975] 	lookupHopsSig:mean 	53.5
scalar Network.dyn_peer[9976] 	lookupTimeSig:mean 	6.6166666666667
scalar Network.dyn_peer[9976] 	lookupStabilitySig:mean 	0.99205529616059
scalar Network.dyn_peer[9976] 	lookupHopsSig:mean 	65.333333333333
scalar Network.dyn_peer[9977] 	lookupTimeSig:mean 	5.0666666666667
scalar Network.dyn_peer[9977] 	lookupStabilitySig:mean 	0.9940512063913
scalar Network.dyn_peer[9977] 	lookupHopsSig:mean 	49.777777777778
scalar Network.dyn_peer[9978] 	lookupTimeSig:mean 	5.9
scalar Network.dyn_peer[9978] 	lookupStabilitySig:mean 	0.99244014988653
scalar Network.dyn_peer[9978] 	lookupHopsSig:mean 	58.25
scalar Network.dyn_peer[9979] 	lookupTimeSig:mean 	7.5142857142857
scalar Network.dyn_peer[9979] 	lookupStabilitySig:mean 	0.9913740694922
scalar Network.dyn_peer[9979] 	lookupHopsSig:mean 	74.285714285714
scalar Network.dyn_peer[9980] 	lookupTimeSig:mean 	4.1833333333333
scalar Network.dyn_peer[9980] 	lookupStabilitySig:mean 	0.99515259395897
scalar Network.dyn_peer[9980] 	lookupHopsSig:mean 	40.916666666667
scalar Network.dyn_peer[9981] 	lookupTimeSig:mean 	4.3555555555556
scalar Network.dyn_peer[9981] 	lookupStabilitySig:mean 	0.99476669499806
scalar Network.dyn_peer[9981] 	lookupHopsSig:mean 	42.666666666667
scalar Network.dyn_peer[9982] 	lookupTimeSig:mean 	4.9333333333333
scalar Network.dyn_peer[9982] 	lookupStabilitySig:mean 	0.99416364602641
scalar Network.dyn_peer[9982] 	lookupHopsSig:mean 	48.444444444444
scalar Network.dyn_peer[9983] 	lookupTimeSig:mean 	5.3375
scalar Network.dyn_peer[9983] 	lookupStabilitySig:mean 	0.99365913387737
scalar Network.dyn_peer[9983] 	lookupHopsSig:mean 	52.5
scalar Network.dyn_peer[9984] 	lookupTimeSig:mean 	5.0166666666667
scalar Network.dyn_peer[9984] 	lookupStabilitySig:mean 	0.99372361740097
scalar Network.dyn_peer[9984] 	lookupHopsSig:mean 	49.333333333333
scalar Network.dyn_peer[9985] 	lookupTimeSig:mean 	4.7333333333333
scalar Network.dyn_peer[9985] 	lookupStabilitySig:mean 	0.99402433757981
scalar Network.dyn_peer[9985] 	lookupHopsSig:mean 	46.5
scalar Network.dyn_peer[9986] 	lookupTimeSig:mean 	6.9888888888889
scalar Network.dyn_peer[9986] 	lookupStabilitySig:mean 	0.99210504432105
scalar Network.dyn_peer[9986] 	lookupHopsSig:mean 	69
scalar Network.dyn_peer[9987] 	lookupTimeSig:mean 	4.4923076923077
scalar Network.dyn_peer[9987] 	lookupStabilitySig:mean 	0.99495613929153
scalar Network.dyn_peer[9987] 	lookupHopsSig:mean 	44
scalar Network.dyn_peer[9988] 	lookupTimeSig:mean 	5.0846153846154
scalar Network.dyn_peer[9988] 	lookupStabilitySig:mean 	0.99428467783862
scalar Network.dyn_peer[9988] 	lookupHopsSig:mean 	49.923076923077
scalar Network.dyn_peer[9989] 	lookupTimeSig:mean 	6.3933333333333
scalar Network.dyn_peer[9989] 	lookupStabilitySig:mean 	0.9930956248194
scalar Network.dyn_peer[9989] 	lookupHopsSig:mean 	63
scalar Network.dyn_peer[9990] 	lookupTimeSig:mean 	4.7461538461538
scalar Network.dyn_peer[9990] 	lookupStabilitySig:mean 	0.99462928962804
scalar Network.dyn_peer[9990] 	lookupHopsSig:mean 	46.538461538462
scalar Network.dyn_peer[9991] 	lookupTimeSig:mean 	7.2538461538462
scalar Network.dyn_peer[9991] 	lookupStabilitySig:mean 	0.99215976580476
scalar Network.dyn_peer[9991] 	lookupHopsSig:mean 	71.615384615385
scalar Network.dyn_peer[9992] 	lookupTimeSig:mean 	4.7636363636364
scalar Network.dyn_peer[9992] 	lookupStabilitySig:mean 	0.99449141709854
scalar Network.dyn_peer[9992] 	lookupHopsSig:mean 	46.727272727273
scalar Network.dyn_peer[9993] 	lookupTimeSig:mean 	3.275
scalar Network.dyn_peer[9993] 	lookupStabilitySig:mean 	0.99559855728148
scalar Network.dyn_peer[9993] 	lookupHopsSig:mean 	32
scalar Network.dyn_peer[9994] 	lookupTimeSig:mean 	4.2666666666667
scalar Network.dyn_peer[9994] 	lookupStabilitySig:mean 	0.99499700983546
scalar Network.dyn_peer[9994] 	lookupHopsSig:mean 	41.777777777778
scalar Network.dyn_peer[9995] 	lookupTimeSig:mean 	8.0666666666667
scalar Network.dyn_peer[9995] 	lookupStabilitySig:mean 	0.99057577108033
scalar Network.dyn_peer[9995] 	lookupHopsSig:mean 	79.833333333333
scalar Network.dyn_peer[9996] 	lookupTimeSig:mean 	3.55
scalar Network.dyn_peer[9996] 	lookupStabilitySig:mean 	0.99587722265278
scalar Network.dyn_peer[9996] 	lookupHopsSig:mean 	34.571428571429
scalar Network.dyn_peer[9997] 	lookupTimeSig:mean 	6.5583333333333
scalar Network.dyn_peer[9997] 	lookupStabilitySig:mean 	0.99277400276818
scalar Network.dyn_peer[9997] 	lookupHopsSig:mean 	64.666666666667
scalar Network.dyn_peer[9998] 	lookupTimeSig:mean 	6.7571428571429
scalar Network.dyn_peer[9998] 	lookupStabilitySig:mean 	0.99212466183651
scalar Network.dyn_peer[9998] 	lookupHopsSig:mean 	66.714285714286
scalar Network.dyn_peer[9999] 	lookupTimeSig:mean 	5.0285714285714
scalar Network.dyn_peer[9999] 	lookupStabilitySig:mean 	0.99389042535664
scalar Network.dyn_peer[9999] 	lookupHopsSig:mean 	49.428571428571
scalar Network.churner 	inGoingSizeSig:mean 	2084.5427457254
