version 2
run Stability2-94-20130528-01:51:06-24168
attr configname Stability2
attr datetime 20130528-01:51:06
attr experiment Stability2
attr inifile omnetpp.ini
attr iterationvars $0=500
attr iterationvars2 "$0=500, $repetition=4"
attr measurement $0=500
attr network Network
attr processid 24168
attr repetition 4
attr replication #4
attr resultdir results
attr runnumber 94
attr seedset 94

scalar Network.dyn_peer[0] 	lookupTimeSig:mean 	1.75
scalar Network.dyn_peer[0] 	lookupStabilitySig:mean 	0.81796277919784
scalar Network.dyn_peer[0] 	lookupHopsSig:mean 	16.6
scalar Network.dyn_peer[1] 	lookupTimeSig:mean 	2.0642857142857
scalar Network.dyn_peer[1] 	lookupStabilitySig:mean 	0.8495042889512
scalar Network.dyn_peer[1] 	lookupHopsSig:mean 	19.714285714286
scalar Network.dyn_peer[2] 	lookupTimeSig:mean 	2.2857142857143
scalar Network.dyn_peer[2] 	lookupStabilitySig:mean 	0.89751962847298
scalar Network.dyn_peer[2] 	lookupHopsSig:mean 	21.904761904762
scalar Network.dyn_peer[3] 	lookupTimeSig:mean 	1.9611111111111
scalar Network.dyn_peer[3] 	lookupStabilitySig:mean 	0.89893975758201
scalar Network.dyn_peer[3] 	lookupHopsSig:mean 	18.666666666667
scalar Network.dyn_peer[4] 	lookupTimeSig:mean 	1.9727272727273
scalar Network.dyn_peer[4] 	lookupStabilitySig:mean 	0.82912817428058
scalar Network.dyn_peer[4] 	lookupHopsSig:mean 	18.818181818182
scalar Network.dyn_peer[5] 	lookupTimeSig:mean 	2.3692307692308
scalar Network.dyn_peer[5] 	lookupStabilitySig:mean 	0.82711678413818
scalar Network.dyn_peer[5] 	lookupHopsSig:mean 	22.769230769231
scalar Network.dyn_peer[6] 	lookupTimeSig:mean 	2.13
scalar Network.dyn_peer[6] 	lookupStabilitySig:mean 	0.79619010277092
scalar Network.dyn_peer[6] 	lookupHopsSig:mean 	20.4
scalar Network.dyn_peer[7] 	lookupTimeSig:mean 	2.4625
scalar Network.dyn_peer[7] 	lookupStabilitySig:mean 	0.80429326731246
scalar Network.dyn_peer[7] 	lookupHopsSig:mean 	23.75
scalar Network.dyn_peer[8] 	lookupTimeSig:mean 	2.1470588235294
scalar Network.dyn_peer[8] 	lookupStabilitySig:mean 	0.87355698849527
scalar Network.dyn_peer[8] 	lookupHopsSig:mean 	20.529411764706
scalar Network.dyn_peer[9] 	lookupTimeSig:mean 	2.775
scalar Network.dyn_peer[9] 	lookupStabilitySig:mean 	0.91216730517335
scalar Network.dyn_peer[9] 	lookupHopsSig:mean 	26.8
scalar Network.dyn_peer[10] 	lookupTimeSig:mean 	2.7444444444444
scalar Network.dyn_peer[10] 	lookupStabilitySig:mean 	0.89277046006949
scalar Network.dyn_peer[10] 	lookupHopsSig:mean 	26.5
scalar Network.dyn_peer[11] 	lookupTimeSig:mean 	2.6736842105263
scalar Network.dyn_peer[11] 	lookupStabilitySig:mean 	0.87699576337381
scalar Network.dyn_peer[11] 	lookupHopsSig:mean 	25.789473684211
scalar Network.dyn_peer[12] 	lookupTimeSig:mean 	2.6470588235294
scalar Network.dyn_peer[12] 	lookupStabilitySig:mean 	0.88050947187688
scalar Network.dyn_peer[12] 	lookupHopsSig:mean 	25.529411764706
scalar Network.dyn_peer[13] 	lookupTimeSig:mean 	2.5875
scalar Network.dyn_peer[13] 	lookupStabilitySig:mean 	0.90186243125936
scalar Network.dyn_peer[13] 	lookupHopsSig:mean 	24.9375
scalar Network.dyn_peer[14] 	lookupTimeSig:mean 	2.3833333333333
scalar Network.dyn_peer[14] 	lookupStabilitySig:mean 	0.89815102600389
scalar Network.dyn_peer[14] 	lookupHopsSig:mean 	22.888888888889
scalar Network.dyn_peer[15] 	lookupTimeSig:mean 	1.66
scalar Network.dyn_peer[15] 	lookupStabilitySig:mean 	0.86732677451024
scalar Network.dyn_peer[15] 	lookupHopsSig:mean 	15.666666666667
scalar Network.dyn_peer[16] 	lookupTimeSig:mean 	2.41875
scalar Network.dyn_peer[16] 	lookupStabilitySig:mean 	0.87895201408537
scalar Network.dyn_peer[16] 	lookupHopsSig:mean 	23.25
scalar Network.dyn_peer[17] 	lookupTimeSig:mean 	2.0588235294118
scalar Network.dyn_peer[17] 	lookupStabilitySig:mean 	0.88609407255974
scalar Network.dyn_peer[17] 	lookupHopsSig:mean 	19.647058823529
scalar Network.dyn_peer[18] 	lookupTimeSig:mean 	2.4578947368421
scalar Network.dyn_peer[18] 	lookupStabilitySig:mean 	0.89705609188317
scalar Network.dyn_peer[18] 	lookupHopsSig:mean 	23.631578947368
scalar Network.dyn_peer[19] 	lookupTimeSig:mean 	3.0642857142857
scalar Network.dyn_peer[19] 	lookupStabilitySig:mean 	0.86765328648367
scalar Network.dyn_peer[19] 	lookupHopsSig:mean 	29.714285714286
scalar Network.dyn_peer[20] 	lookupTimeSig:mean 	2.4789473684211
scalar Network.dyn_peer[20] 	lookupStabilitySig:mean 	0.90849767099318
scalar Network.dyn_peer[20] 	lookupHopsSig:mean 	23.842105263158
scalar Network.dyn_peer[21] 	lookupTimeSig:mean 	2.6375
scalar Network.dyn_peer[21] 	lookupStabilitySig:mean 	0.90684257814428
scalar Network.dyn_peer[21] 	lookupHopsSig:mean 	25.416666666667
scalar Network.dyn_peer[22] 	lookupTimeSig:mean 	2.0941176470588
scalar Network.dyn_peer[22] 	lookupStabilitySig:mean 	0.88621621359797
scalar Network.dyn_peer[22] 	lookupHopsSig:mean 	20
scalar Network.dyn_peer[23] 	lookupTimeSig:mean 	2.5142857142857
scalar Network.dyn_peer[23] 	lookupStabilitySig:mean 	0.89956907797161
scalar Network.dyn_peer[23] 	lookupHopsSig:mean 	24.190476190476
scalar Network.dyn_peer[24] 	lookupTimeSig:mean 	2.6565217391304
scalar Network.dyn_peer[24] 	lookupStabilitySig:mean 	0.92056612312065
scalar Network.dyn_peer[24] 	lookupHopsSig:mean 	25.608695652174
scalar Network.dyn_peer[25] 	lookupTimeSig:mean 	3.8
scalar Network.dyn_peer[25] 	lookupStabilitySig:mean 	0.87219059940141
scalar Network.dyn_peer[25] 	lookupHopsSig:mean 	37.076923076923
scalar Network.dyn_peer[26] 	lookupTimeSig:mean 	1.9055555555556
scalar Network.dyn_peer[26] 	lookupStabilitySig:mean 	0.89743879124419
scalar Network.dyn_peer[26] 	lookupHopsSig:mean 	18.111111111111
scalar Network.dyn_peer[27] 	lookupTimeSig:mean 	3.1588235294118
scalar Network.dyn_peer[27] 	lookupStabilitySig:mean 	0.89065945104641
scalar Network.dyn_peer[27] 	lookupHopsSig:mean 	30.647058823529
scalar Network.dyn_peer[28] 	lookupTimeSig:mean 	3.1470588235294
scalar Network.dyn_peer[28] 	lookupStabilitySig:mean 	0.88973728246877
scalar Network.dyn_peer[28] 	lookupHopsSig:mean 	30.529411764706
scalar Network.dyn_peer[29] 	lookupTimeSig:mean 	1.6117647058824
scalar Network.dyn_peer[29] 	lookupStabilitySig:mean 	0.90633507530369
scalar Network.dyn_peer[29] 	lookupHopsSig:mean 	15.176470588235
scalar Network.dyn_peer[30] 	lookupTimeSig:mean 	2.1647058823529
scalar Network.dyn_peer[30] 	lookupStabilitySig:mean 	0.89743499586578
scalar Network.dyn_peer[30] 	lookupHopsSig:mean 	20.705882352941
scalar Network.dyn_peer[31] 	lookupTimeSig:mean 	2.0941176470588
scalar Network.dyn_peer[31] 	lookupStabilitySig:mean 	0.89589575130273
scalar Network.dyn_peer[31] 	lookupHopsSig:mean 	20
scalar Network.dyn_peer[32] 	lookupTimeSig:mean 	2.6894736842105
scalar Network.dyn_peer[32] 	lookupStabilitySig:mean 	0.90636032976602
scalar Network.dyn_peer[32] 	lookupHopsSig:mean 	25.947368421053
scalar Network.dyn_peer[33] 	lookupTimeSig:mean 	2.0083333333333
scalar Network.dyn_peer[33] 	lookupStabilitySig:mean 	0.91748615526012
scalar Network.dyn_peer[33] 	lookupHopsSig:mean 	19.125
scalar Network.dyn_peer[34] 	lookupTimeSig:mean 	2.9666666666667
scalar Network.dyn_peer[34] 	lookupStabilitySig:mean 	0.90059716921921
scalar Network.dyn_peer[34] 	lookupHopsSig:mean 	28.722222222222
scalar Network.dyn_peer[35] 	lookupTimeSig:mean 	2.8615384615385
scalar Network.dyn_peer[35] 	lookupStabilitySig:mean 	0.86424674609533
scalar Network.dyn_peer[35] 	lookupHopsSig:mean 	27.692307692308
scalar Network.dyn_peer[36] 	lookupTimeSig:mean 	2.4133333333333
scalar Network.dyn_peer[36] 	lookupStabilitySig:mean 	0.89561535278335
scalar Network.dyn_peer[36] 	lookupHopsSig:mean 	23.2
scalar Network.dyn_peer[37] 	lookupTimeSig:mean 	1.99
scalar Network.dyn_peer[37] 	lookupStabilitySig:mean 	0.83930234368891
scalar Network.dyn_peer[37] 	lookupHopsSig:mean 	19
scalar Network.dyn_peer[38] 	lookupTimeSig:mean 	2.4538461538462
scalar Network.dyn_peer[38] 	lookupStabilitySig:mean 	0.88128546897608
scalar Network.dyn_peer[38] 	lookupHopsSig:mean 	23.615384615385
scalar Network.dyn_peer[39] 	lookupTimeSig:mean 	1.9384615384615
scalar Network.dyn_peer[39] 	lookupStabilitySig:mean 	0.87741227089786
scalar Network.dyn_peer[39] 	lookupHopsSig:mean 	18.461538461538
scalar Network.dyn_peer[40] 	lookupTimeSig:mean 	2.0466666666667
scalar Network.dyn_peer[40] 	lookupStabilitySig:mean 	0.89900013394654
scalar Network.dyn_peer[40] 	lookupHopsSig:mean 	19.533333333333
scalar Network.dyn_peer[41] 	lookupTimeSig:mean 	2.9909090909091
scalar Network.dyn_peer[41] 	lookupStabilitySig:mean 	0.84644800356843
scalar Network.dyn_peer[41] 	lookupHopsSig:mean 	29
scalar Network.dyn_peer[42] 	lookupTimeSig:mean 	2.1416666666667
scalar Network.dyn_peer[42] 	lookupStabilitySig:mean 	0.86363229279717
scalar Network.dyn_peer[42] 	lookupHopsSig:mean 	20.5
scalar Network.dyn_peer[43] 	lookupTimeSig:mean 	2.5625
scalar Network.dyn_peer[43] 	lookupStabilitySig:mean 	0.92823268315988
scalar Network.dyn_peer[43] 	lookupHopsSig:mean 	24.6875
scalar Network.dyn_peer[44] 	lookupTimeSig:mean 	3.1153846153846
scalar Network.dyn_peer[44] 	lookupStabilitySig:mean 	0.8766247741878
scalar Network.dyn_peer[44] 	lookupHopsSig:mean 	30.230769230769
scalar Network.dyn_peer[45] 	lookupTimeSig:mean 	3.09375
scalar Network.dyn_peer[45] 	lookupStabilitySig:mean 	0.92522351843218
scalar Network.dyn_peer[45] 	lookupHopsSig:mean 	30
scalar Network.dyn_peer[46] 	lookupTimeSig:mean 	2.5066666666667
scalar Network.dyn_peer[46] 	lookupStabilitySig:mean 	0.89957888081359
scalar Network.dyn_peer[46] 	lookupHopsSig:mean 	24.133333333333
scalar Network.dyn_peer[47] 	lookupTimeSig:mean 	2.5333333333333
scalar Network.dyn_peer[47] 	lookupStabilitySig:mean 	0.90232176330561
scalar Network.dyn_peer[47] 	lookupHopsSig:mean 	24.4
scalar Network.dyn_peer[48] 	lookupTimeSig:mean 	1.9142857142857
scalar Network.dyn_peer[48] 	lookupStabilitySig:mean 	0.8886267536852
scalar Network.dyn_peer[48] 	lookupHopsSig:mean 	18.214285714286
scalar Network.dyn_peer[49] 	lookupTimeSig:mean 	3.1416666666667
scalar Network.dyn_peer[49] 	lookupStabilitySig:mean 	0.92172290949384
scalar Network.dyn_peer[49] 	lookupHopsSig:mean 	30.458333333333
scalar Network.dyn_peer[50] 	lookupTimeSig:mean 	2.95
scalar Network.dyn_peer[50] 	lookupStabilitySig:mean 	0.9313232798886
scalar Network.dyn_peer[50] 	lookupHopsSig:mean 	28.541666666667
scalar Network.dyn_peer[51] 	lookupTimeSig:mean 	2.91
scalar Network.dyn_peer[51] 	lookupStabilitySig:mean 	0.95913795592108
scalar Network.dyn_peer[51] 	lookupHopsSig:mean 	28.133333333333
scalar Network.dyn_peer[52] 	lookupTimeSig:mean 	2.1058823529412
scalar Network.dyn_peer[52] 	lookupStabilitySig:mean 	0.90521814427612
scalar Network.dyn_peer[52] 	lookupHopsSig:mean 	20.117647058824
scalar Network.dyn_peer[53] 	lookupTimeSig:mean 	2.7533333333333
scalar Network.dyn_peer[53] 	lookupStabilitySig:mean 	0.89238445299367
scalar Network.dyn_peer[53] 	lookupHopsSig:mean 	26.6
scalar Network.dyn_peer[54] 	lookupTimeSig:mean 	2.18
scalar Network.dyn_peer[54] 	lookupStabilitySig:mean 	0.90803413758986
scalar Network.dyn_peer[54] 	lookupHopsSig:mean 	20.866666666667
scalar Network.dyn_peer[55] 	lookupTimeSig:mean 	2.16875
scalar Network.dyn_peer[55] 	lookupStabilitySig:mean 	0.90262272179825
scalar Network.dyn_peer[55] 	lookupHopsSig:mean 	20.75
scalar Network.dyn_peer[56] 	lookupTimeSig:mean 	2.4375
scalar Network.dyn_peer[56] 	lookupStabilitySig:mean 	0.93150880259539
scalar Network.dyn_peer[56] 	lookupHopsSig:mean 	23.416666666667
scalar Network.dyn_peer[57] 	lookupTimeSig:mean 	3.2375
scalar Network.dyn_peer[57] 	lookupStabilitySig:mean 	0.90830621815985
scalar Network.dyn_peer[57] 	lookupHopsSig:mean 	31.4375
scalar Network.dyn_peer[58] 	lookupTimeSig:mean 	2.275
scalar Network.dyn_peer[58] 	lookupStabilitySig:mean 	0.8807327382965
scalar Network.dyn_peer[58] 	lookupHopsSig:mean 	21.875
scalar Network.dyn_peer[59] 	lookupTimeSig:mean 	2.0444444444444
scalar Network.dyn_peer[59] 	lookupStabilitySig:mean 	0.93164929044562
scalar Network.dyn_peer[59] 	lookupHopsSig:mean 	19.5
scalar Network.dyn_peer[60] 	lookupTimeSig:mean 	2.5307692307692
scalar Network.dyn_peer[60] 	lookupStabilitySig:mean 	0.89756639137004
scalar Network.dyn_peer[60] 	lookupHopsSig:mean 	24.384615384615
scalar Network.dyn_peer[61] 	lookupTimeSig:mean 	3.1157894736842
scalar Network.dyn_peer[61] 	lookupStabilitySig:mean 	0.92252724452747
scalar Network.dyn_peer[61] 	lookupHopsSig:mean 	30.210526315789
scalar Network.dyn_peer[62] 	lookupTimeSig:mean 	2.6461538461538
scalar Network.dyn_peer[62] 	lookupStabilitySig:mean 	0.8979572194915
scalar Network.dyn_peer[62] 	lookupHopsSig:mean 	25.538461538462
scalar Network.dyn_peer[63] 	lookupTimeSig:mean 	2.9909090909091
scalar Network.dyn_peer[63] 	lookupStabilitySig:mean 	0.88763135299087
scalar Network.dyn_peer[63] 	lookupHopsSig:mean 	29
scalar Network.dyn_peer[64] 	lookupTimeSig:mean 	1.81
scalar Network.dyn_peer[64] 	lookupStabilitySig:mean 	0.88844663435593
scalar Network.dyn_peer[64] 	lookupHopsSig:mean 	17.2
scalar Network.dyn_peer[65] 	lookupTimeSig:mean 	2.3263157894737
scalar Network.dyn_peer[65] 	lookupStabilitySig:mean 	0.92405873049345
scalar Network.dyn_peer[65] 	lookupHopsSig:mean 	22.315789473684
scalar Network.dyn_peer[66] 	lookupTimeSig:mean 	2.375
scalar Network.dyn_peer[66] 	lookupStabilitySig:mean 	0.93352355830333
scalar Network.dyn_peer[66] 	lookupHopsSig:mean 	22.791666666667
scalar Network.dyn_peer[67] 	lookupTimeSig:mean 	2.9642857142857
scalar Network.dyn_peer[67] 	lookupStabilitySig:mean 	0.90682067106744
scalar Network.dyn_peer[67] 	lookupHopsSig:mean 	28.714285714286
scalar Network.dyn_peer[68] 	lookupTimeSig:mean 	2.24
scalar Network.dyn_peer[68] 	lookupStabilitySig:mean 	0.9355249264976
scalar Network.dyn_peer[68] 	lookupHopsSig:mean 	21.44
scalar Network.dyn_peer[69] 	lookupTimeSig:mean 	1.88
scalar Network.dyn_peer[69] 	lookupStabilitySig:mean 	0.92601877485091
scalar Network.dyn_peer[69] 	lookupHopsSig:mean 	17.866666666667
scalar Network.dyn_peer[70] 	lookupTimeSig:mean 	3.04
scalar Network.dyn_peer[70] 	lookupStabilitySig:mean 	0.92591963481779
scalar Network.dyn_peer[70] 	lookupHopsSig:mean 	29.466666666667
scalar Network.dyn_peer[71] 	lookupTimeSig:mean 	2.6428571428571
scalar Network.dyn_peer[71] 	lookupStabilitySig:mean 	0.92251588746772
scalar Network.dyn_peer[71] 	lookupHopsSig:mean 	25.5
scalar Network.dyn_peer[72] 	lookupTimeSig:mean 	2.4333333333333
scalar Network.dyn_peer[72] 	lookupStabilitySig:mean 	0.92158515984192
scalar Network.dyn_peer[72] 	lookupHopsSig:mean 	23.388888888889
scalar Network.dyn_peer[73] 	lookupTimeSig:mean 	1.9090909090909
scalar Network.dyn_peer[73] 	lookupStabilitySig:mean 	0.90568610407751
scalar Network.dyn_peer[73] 	lookupHopsSig:mean 	18.181818181818
scalar Network.dyn_peer[74] 	lookupTimeSig:mean 	1.8434782608696
scalar Network.dyn_peer[74] 	lookupStabilitySig:mean 	0.94317632243442
scalar Network.dyn_peer[74] 	lookupHopsSig:mean 	17.478260869565
scalar Network.dyn_peer[75] 	lookupTimeSig:mean 	2.7533333333333
scalar Network.dyn_peer[75] 	lookupStabilitySig:mean 	0.91501929791023
scalar Network.dyn_peer[75] 	lookupHopsSig:mean 	26.6
scalar Network.dyn_peer[76] 	lookupTimeSig:mean 	2.6769230769231
scalar Network.dyn_peer[76] 	lookupStabilitySig:mean 	0.89834648718198
scalar Network.dyn_peer[76] 	lookupHopsSig:mean 	25.846153846154
scalar Network.dyn_peer[77] 	lookupTimeSig:mean 	2.00625
scalar Network.dyn_peer[77] 	lookupStabilitySig:mean 	0.93128847770276
scalar Network.dyn_peer[77] 	lookupHopsSig:mean 	19.125
scalar Network.dyn_peer[78] 	lookupTimeSig:mean 	1.9071428571429
scalar Network.dyn_peer[78] 	lookupStabilitySig:mean 	0.90880669863795
scalar Network.dyn_peer[78] 	lookupHopsSig:mean 	18.142857142857
scalar Network.dyn_peer[79] 	lookupTimeSig:mean 	2.98125
scalar Network.dyn_peer[79] 	lookupStabilitySig:mean 	0.94020501489285
scalar Network.dyn_peer[79] 	lookupHopsSig:mean 	28.875
scalar Network.dyn_peer[80] 	lookupTimeSig:mean 	2.2714285714286
scalar Network.dyn_peer[80] 	lookupStabilitySig:mean 	0.91212177941842
scalar Network.dyn_peer[80] 	lookupHopsSig:mean 	21.785714285714
scalar Network.dyn_peer[81] 	lookupTimeSig:mean 	2.6769230769231
scalar Network.dyn_peer[81] 	lookupStabilitySig:mean 	0.92211986374325
scalar Network.dyn_peer[81] 	lookupHopsSig:mean 	25.846153846154
scalar Network.dyn_peer[82] 	lookupTimeSig:mean 	1.6727272727273
scalar Network.dyn_peer[82] 	lookupStabilitySig:mean 	0.9436231829353
scalar Network.dyn_peer[82] 	lookupHopsSig:mean 	15.772727272727
scalar Network.dyn_peer[83] 	lookupTimeSig:mean 	3.39
scalar Network.dyn_peer[83] 	lookupStabilitySig:mean 	0.8995345861651
scalar Network.dyn_peer[83] 	lookupHopsSig:mean 	33
scalar Network.dyn_peer[84] 	lookupTimeSig:mean 	2.8
scalar Network.dyn_peer[84] 	lookupStabilitySig:mean 	0.9226628589843
scalar Network.dyn_peer[84] 	lookupHopsSig:mean 	27.071428571429
scalar Network.dyn_peer[85] 	lookupTimeSig:mean 	2.6136363636364
scalar Network.dyn_peer[85] 	lookupStabilitySig:mean 	0.94076287217269
scalar Network.dyn_peer[85] 	lookupHopsSig:mean 	25.181818181818
scalar Network.dyn_peer[86] 	lookupTimeSig:mean 	2.42
scalar Network.dyn_peer[86] 	lookupStabilitySig:mean 	0.92067270719757
scalar Network.dyn_peer[86] 	lookupHopsSig:mean 	23.266666666667
scalar Network.dyn_peer[87] 	lookupTimeSig:mean 	2.8666666666667
scalar Network.dyn_peer[87] 	lookupStabilitySig:mean 	0.92755889982606
scalar Network.dyn_peer[87] 	lookupHopsSig:mean 	27.733333333333
scalar Network.dyn_peer[88] 	lookupTimeSig:mean 	2.6181818181818
scalar Network.dyn_peer[88] 	lookupStabilitySig:mean 	0.94566905697469
scalar Network.dyn_peer[88] 	lookupHopsSig:mean 	25.227272727273
scalar Network.dyn_peer[89] 	lookupTimeSig:mean 	2.1083333333333
scalar Network.dyn_peer[89] 	lookupStabilitySig:mean 	0.91814436947849
scalar Network.dyn_peer[89] 	lookupHopsSig:mean 	20.166666666667
scalar Network.dyn_peer[90] 	lookupTimeSig:mean 	2.8647058823529
scalar Network.dyn_peer[90] 	lookupStabilitySig:mean 	0.9302629039842
scalar Network.dyn_peer[90] 	lookupHopsSig:mean 	27.705882352941
scalar Network.dyn_peer[91] 	lookupTimeSig:mean 	2.86
scalar Network.dyn_peer[91] 	lookupStabilitySig:mean 	0.92793181908006
scalar Network.dyn_peer[91] 	lookupHopsSig:mean 	27.666666666667
scalar Network.dyn_peer[92] 	lookupTimeSig:mean 	2.43125
scalar Network.dyn_peer[92] 	lookupStabilitySig:mean 	0.93831003690138
scalar Network.dyn_peer[92] 	lookupHopsSig:mean 	23.375
scalar Network.dyn_peer[93] 	lookupTimeSig:mean 	2.4692307692308
scalar Network.dyn_peer[93] 	lookupStabilitySig:mean 	0.92282907306575
scalar Network.dyn_peer[93] 	lookupHopsSig:mean 	23.769230769231
scalar Network.dyn_peer[94] 	lookupTimeSig:mean 	1.4111111111111
scalar Network.dyn_peer[94] 	lookupStabilitySig:mean 	0.89827238139696
scalar Network.dyn_peer[94] 	lookupHopsSig:mean 	13.222222222222
scalar Network.dyn_peer[95] 	lookupTimeSig:mean 	2.1142857142857
scalar Network.dyn_peer[95] 	lookupStabilitySig:mean 	0.91679802051346
scalar Network.dyn_peer[95] 	lookupHopsSig:mean 	20.214285714286
scalar Network.dyn_peer[96] 	lookupTimeSig:mean 	3.0066666666667
scalar Network.dyn_peer[96] 	lookupStabilitySig:mean 	0.913038017756
scalar Network.dyn_peer[96] 	lookupHopsSig:mean 	29.133333333333
scalar Network.dyn_peer[97] 	lookupTimeSig:mean 	3.0826086956522
scalar Network.dyn_peer[97] 	lookupStabilitySig:mean 	0.9455644741209
scalar Network.dyn_peer[97] 	lookupHopsSig:mean 	29.869565217391
scalar Network.dyn_peer[98] 	lookupTimeSig:mean 	3.2380952380952
scalar Network.dyn_peer[98] 	lookupStabilitySig:mean 	0.94886382908693
scalar Network.dyn_peer[98] 	lookupHopsSig:mean 	31.428571428571
scalar Network.dyn_peer[99] 	lookupTimeSig:mean 	2.6809523809524
scalar Network.dyn_peer[99] 	lookupStabilitySig:mean 	0.9575192111633
scalar Network.dyn_peer[99] 	lookupHopsSig:mean 	25.857142857143
scalar Network.dyn_peer[100] 	lookupTimeSig:mean 	3.1071428571429
scalar Network.dyn_peer[100] 	lookupStabilitySig:mean 	0.92629944952205
scalar Network.dyn_peer[100] 	lookupHopsSig:mean 	30.142857142857
scalar Network.dyn_peer[101] 	lookupTimeSig:mean 	2.5071428571429
scalar Network.dyn_peer[101] 	lookupStabilitySig:mean 	0.92662308868187
scalar Network.dyn_peer[101] 	lookupHopsSig:mean 	24.142857142857
scalar Network.dyn_peer[102] 	lookupTimeSig:mean 	2.5647058823529
scalar Network.dyn_peer[102] 	lookupStabilitySig:mean 	0.95202411785174
scalar Network.dyn_peer[102] 	lookupHopsSig:mean 	24.705882352941
scalar Network.dyn_peer[103] 	lookupTimeSig:mean 	2.356
scalar Network.dyn_peer[103] 	lookupStabilitySig:mean 	0.95887535018381
scalar Network.dyn_peer[103] 	lookupHopsSig:mean 	22.6
scalar Network.dyn_peer[104] 	lookupTimeSig:mean 	2.4
scalar Network.dyn_peer[104] 	lookupStabilitySig:mean 	0.92555298810891
scalar Network.dyn_peer[104] 	lookupHopsSig:mean 	23.071428571429
scalar Network.dyn_peer[105] 	lookupTimeSig:mean 	2.5230769230769
scalar Network.dyn_peer[105] 	lookupStabilitySig:mean 	0.91991139525691
scalar Network.dyn_peer[105] 	lookupHopsSig:mean 	24.307692307692
scalar Network.dyn_peer[106] 	lookupTimeSig:mean 	2.4111111111111
scalar Network.dyn_peer[106] 	lookupStabilitySig:mean 	0.95752710380798
scalar Network.dyn_peer[106] 	lookupHopsSig:mean 	23.148148148148
scalar Network.dyn_peer[107] 	lookupTimeSig:mean 	2.5736842105263
scalar Network.dyn_peer[107] 	lookupStabilitySig:mean 	0.93982675867645
scalar Network.dyn_peer[107] 	lookupHopsSig:mean 	24.789473684211
scalar Network.dyn_peer[108] 	lookupTimeSig:mean 	2.175
scalar Network.dyn_peer[108] 	lookupStabilitySig:mean 	0.93165091183619
scalar Network.dyn_peer[108] 	lookupHopsSig:mean 	20.8125
scalar Network.dyn_peer[109] 	lookupTimeSig:mean 	2.4904761904762
scalar Network.dyn_peer[109] 	lookupStabilitySig:mean 	0.94900791216198
scalar Network.dyn_peer[109] 	lookupHopsSig:mean 	23.952380952381
scalar Network.dyn_peer[110] 	lookupTimeSig:mean 	2.6
scalar Network.dyn_peer[110] 	lookupStabilitySig:mean 	0.89156450610608
scalar Network.dyn_peer[110] 	lookupHopsSig:mean 	25.1
scalar Network.dyn_peer[111] 	lookupTimeSig:mean 	1.95625
scalar Network.dyn_peer[111] 	lookupStabilitySig:mean 	0.93370154988952
scalar Network.dyn_peer[111] 	lookupHopsSig:mean 	18.625
scalar Network.dyn_peer[112] 	lookupTimeSig:mean 	2.585
scalar Network.dyn_peer[112] 	lookupStabilitySig:mean 	0.94225116965827
scalar Network.dyn_peer[112] 	lookupHopsSig:mean 	24.9
scalar Network.dyn_peer[113] 	lookupTimeSig:mean 	2.3666666666667
scalar Network.dyn_peer[113] 	lookupStabilitySig:mean 	0.93025207718213
scalar Network.dyn_peer[113] 	lookupHopsSig:mean 	22.733333333333
scalar Network.dyn_peer[114] 	lookupTimeSig:mean 	2.1583333333333
scalar Network.dyn_peer[114] 	lookupStabilitySig:mean 	0.9364323154053
scalar Network.dyn_peer[114] 	lookupHopsSig:mean 	20.666666666667
scalar Network.dyn_peer[115] 	lookupTimeSig:mean 	2.7789473684211
scalar Network.dyn_peer[115] 	lookupStabilitySig:mean 	0.94069443339188
scalar Network.dyn_peer[115] 	lookupHopsSig:mean 	26.842105263158
scalar Network.dyn_peer[116] 	lookupTimeSig:mean 	2.365
scalar Network.dyn_peer[116] 	lookupStabilitySig:mean 	0.94827572579961
scalar Network.dyn_peer[116] 	lookupHopsSig:mean 	22.7
scalar Network.dyn_peer[117] 	lookupTimeSig:mean 	1.9842105263158
scalar Network.dyn_peer[117] 	lookupStabilitySig:mean 	0.94701352441304
scalar Network.dyn_peer[117] 	lookupHopsSig:mean 	18.894736842105
scalar Network.dyn_peer[118] 	lookupTimeSig:mean 	2.71
scalar Network.dyn_peer[118] 	lookupStabilitySig:mean 	0.94864447989967
scalar Network.dyn_peer[118] 	lookupHopsSig:mean 	26.15
scalar Network.dyn_peer[119] 	lookupTimeSig:mean 	1.4923076923077
scalar Network.dyn_peer[119] 	lookupStabilitySig:mean 	0.93524255854293
scalar Network.dyn_peer[119] 	lookupHopsSig:mean 	14
scalar Network.dyn_peer[120] 	lookupTimeSig:mean 	2.5260869565217
scalar Network.dyn_peer[120] 	lookupStabilitySig:mean 	0.95258077900128
scalar Network.dyn_peer[120] 	lookupHopsSig:mean 	24.304347826087
scalar Network.dyn_peer[121] 	lookupTimeSig:mean 	2.225
scalar Network.dyn_peer[121] 	lookupStabilitySig:mean 	0.92279706130891
scalar Network.dyn_peer[121] 	lookupHopsSig:mean 	21.333333333333
scalar Network.dyn_peer[122] 	lookupTimeSig:mean 	2.66875
scalar Network.dyn_peer[122] 	lookupStabilitySig:mean 	0.93098909116816
scalar Network.dyn_peer[122] 	lookupHopsSig:mean 	25.75
scalar Network.dyn_peer[123] 	lookupTimeSig:mean 	2.4153846153846
scalar Network.dyn_peer[123] 	lookupStabilitySig:mean 	0.91832310706377
scalar Network.dyn_peer[123] 	lookupHopsSig:mean 	23.230769230769
scalar Network.dyn_peer[124] 	lookupTimeSig:mean 	1.81875
scalar Network.dyn_peer[124] 	lookupStabilitySig:mean 	0.94632289701258
scalar Network.dyn_peer[124] 	lookupHopsSig:mean 	17.25
scalar Network.dyn_peer[125] 	lookupTimeSig:mean 	2.6375
scalar Network.dyn_peer[125] 	lookupStabilitySig:mean 	0.93564358061121
scalar Network.dyn_peer[125] 	lookupHopsSig:mean 	25.4375
scalar Network.dyn_peer[126] 	lookupTimeSig:mean 	2.6736842105263
scalar Network.dyn_peer[126] 	lookupStabilitySig:mean 	0.94478373325087
scalar Network.dyn_peer[126] 	lookupHopsSig:mean 	25.789473684211
scalar Network.dyn_peer[127] 	lookupTimeSig:mean 	2.7304347826087
scalar Network.dyn_peer[127] 	lookupStabilitySig:mean 	0.9537971738078
scalar Network.dyn_peer[127] 	lookupHopsSig:mean 	26.347826086957
scalar Network.dyn_peer[128] 	lookupTimeSig:mean 	2.6823529411765
scalar Network.dyn_peer[128] 	lookupStabilitySig:mean 	0.94236418125494
scalar Network.dyn_peer[128] 	lookupHopsSig:mean 	25.882352941176
scalar Network.dyn_peer[129] 	lookupTimeSig:mean 	2.8818181818182
scalar Network.dyn_peer[129] 	lookupStabilitySig:mean 	0.94733803594665
scalar Network.dyn_peer[129] 	lookupHopsSig:mean 	27.863636363636
scalar Network.dyn_peer[130] 	lookupTimeSig:mean 	1.85
scalar Network.dyn_peer[130] 	lookupStabilitySig:mean 	0.92673642498751
scalar Network.dyn_peer[130] 	lookupHopsSig:mean 	17.583333333333
scalar Network.dyn_peer[131] 	lookupTimeSig:mean 	1.7894736842105
scalar Network.dyn_peer[131] 	lookupStabilitySig:mean 	0.9497293089639
scalar Network.dyn_peer[131] 	lookupHopsSig:mean 	16.947368421053
scalar Network.dyn_peer[132] 	lookupTimeSig:mean 	3.49375
scalar Network.dyn_peer[132] 	lookupStabilitySig:mean 	0.94986338066519
scalar Network.dyn_peer[132] 	lookupHopsSig:mean 	34
scalar Network.dyn_peer[133] 	lookupTimeSig:mean 	3.2714285714286
scalar Network.dyn_peer[133] 	lookupStabilitySig:mean 	0.94516013941861
scalar Network.dyn_peer[133] 	lookupHopsSig:mean 	31.761904761905
scalar Network.dyn_peer[134] 	lookupTimeSig:mean 	2.07
scalar Network.dyn_peer[134] 	lookupStabilitySig:mean 	0.94099604552612
scalar Network.dyn_peer[134] 	lookupHopsSig:mean 	19.8
scalar Network.dyn_peer[135] 	lookupTimeSig:mean 	3.8384615384615
scalar Network.dyn_peer[135] 	lookupStabilitySig:mean 	0.93911757991792
scalar Network.dyn_peer[135] 	lookupHopsSig:mean 	37.461538461538
scalar Network.dyn_peer[136] 	lookupTimeSig:mean 	1.77
scalar Network.dyn_peer[136] 	lookupStabilitySig:mean 	0.9420497613959
scalar Network.dyn_peer[136] 	lookupHopsSig:mean 	16.8
scalar Network.dyn_peer[137] 	lookupTimeSig:mean 	3.1384615384615
scalar Network.dyn_peer[137] 	lookupStabilitySig:mean 	0.93120144565518
scalar Network.dyn_peer[137] 	lookupHopsSig:mean 	30.461538461538
scalar Network.dyn_peer[138] 	lookupTimeSig:mean 	2.5307692307692
scalar Network.dyn_peer[138] 	lookupStabilitySig:mean 	0.93459668597923
scalar Network.dyn_peer[138] 	lookupHopsSig:mean 	24.384615384615
scalar Network.dyn_peer[139] 	lookupTimeSig:mean 	3.0230769230769
scalar Network.dyn_peer[139] 	lookupStabilitySig:mean 	0.92722940881951
scalar Network.dyn_peer[139] 	lookupHopsSig:mean 	29.307692307692
scalar Network.dyn_peer[140] 	lookupTimeSig:mean 	2.196
scalar Network.dyn_peer[140] 	lookupStabilitySig:mean 	0.95915940945037
scalar Network.dyn_peer[140] 	lookupHopsSig:mean 	21
scalar Network.dyn_peer[141] 	lookupTimeSig:mean 	3.1916666666667
scalar Network.dyn_peer[141] 	lookupStabilitySig:mean 	0.95180145620058
scalar Network.dyn_peer[141] 	lookupHopsSig:mean 	31
scalar Network.dyn_peer[142] 	lookupTimeSig:mean 	1.4777777777778
scalar Network.dyn_peer[142] 	lookupStabilitySig:mean 	0.92545141569442
scalar Network.dyn_peer[142] 	lookupHopsSig:mean 	13.888888888889
scalar Network.dyn_peer[143] 	lookupTimeSig:mean 	2.2769230769231
scalar Network.dyn_peer[143] 	lookupStabilitySig:mean 	0.9334230475271
scalar Network.dyn_peer[143] 	lookupHopsSig:mean 	21.846153846154
scalar Network.dyn_peer[144] 	lookupTimeSig:mean 	3.9263157894737
scalar Network.dyn_peer[144] 	lookupStabilitySig:mean 	0.95951979293635
scalar Network.dyn_peer[144] 	lookupHopsSig:mean 	38.315789473684
scalar Network.dyn_peer[145] 	lookupTimeSig:mean 	2.72
scalar Network.dyn_peer[145] 	lookupStabilitySig:mean 	0.94896245487034
scalar Network.dyn_peer[145] 	lookupHopsSig:mean 	26.266666666667
scalar Network.dyn_peer[146] 	lookupTimeSig:mean 	2.9
scalar Network.dyn_peer[146] 	lookupStabilitySig:mean 	0.96040868745995
scalar Network.dyn_peer[146] 	lookupHopsSig:mean 	28.04347826087
scalar Network.dyn_peer[147] 	lookupTimeSig:mean 	2.3833333333333
scalar Network.dyn_peer[147] 	lookupStabilitySig:mean 	0.95419580890383
scalar Network.dyn_peer[147] 	lookupHopsSig:mean 	22.888888888889
scalar Network.dyn_peer[148] 	lookupTimeSig:mean 	2.2535714285714
scalar Network.dyn_peer[148] 	lookupStabilitySig:mean 	0.96822876147261
scalar Network.dyn_peer[148] 	lookupHopsSig:mean 	21.571428571429
scalar Network.dyn_peer[149] 	lookupTimeSig:mean 	2.60625
scalar Network.dyn_peer[149] 	lookupStabilitySig:mean 	0.94521094623633
scalar Network.dyn_peer[149] 	lookupHopsSig:mean 	25.125
scalar Network.dyn_peer[150] 	lookupTimeSig:mean 	1.95
scalar Network.dyn_peer[150] 	lookupStabilitySig:mean 	0.94566956641211
scalar Network.dyn_peer[150] 	lookupHopsSig:mean 	18.5625
scalar Network.dyn_peer[151] 	lookupTimeSig:mean 	2.5266666666667
scalar Network.dyn_peer[151] 	lookupStabilitySig:mean 	0.93149932734668
scalar Network.dyn_peer[151] 	lookupHopsSig:mean 	24.333333333333
scalar Network.dyn_peer[152] 	lookupTimeSig:mean 	1.5571428571429
scalar Network.dyn_peer[152] 	lookupStabilitySig:mean 	0.94163474803125
scalar Network.dyn_peer[152] 	lookupHopsSig:mean 	14.642857142857
scalar Network.dyn_peer[153] 	lookupTimeSig:mean 	3.22
scalar Network.dyn_peer[153] 	lookupStabilitySig:mean 	0.94331266088411
scalar Network.dyn_peer[153] 	lookupHopsSig:mean 	31.266666666667
scalar Network.dyn_peer[154] 	lookupTimeSig:mean 	2.2666666666667
scalar Network.dyn_peer[154] 	lookupStabilitySig:mean 	0.94486538697189
scalar Network.dyn_peer[154] 	lookupHopsSig:mean 	21.75
scalar Network.dyn_peer[155] 	lookupTimeSig:mean 	1.8571428571429
scalar Network.dyn_peer[155] 	lookupStabilitySig:mean 	0.94772836161844
scalar Network.dyn_peer[155] 	lookupHopsSig:mean 	17.642857142857
scalar Network.dyn_peer[156] 	lookupTimeSig:mean 	2.2642857142857
scalar Network.dyn_peer[156] 	lookupStabilitySig:mean 	0.94258367217013
scalar Network.dyn_peer[156] 	lookupHopsSig:mean 	21.714285714286
scalar Network.dyn_peer[157] 	lookupTimeSig:mean 	2.748
scalar Network.dyn_peer[157] 	lookupStabilitySig:mean 	0.96027196945157
scalar Network.dyn_peer[157] 	lookupHopsSig:mean 	26.52
scalar Network.dyn_peer[158] 	lookupTimeSig:mean 	2.5818181818182
scalar Network.dyn_peer[158] 	lookupStabilitySig:mean 	0.95883492072409
scalar Network.dyn_peer[158] 	lookupHopsSig:mean 	24.863636363636
scalar Network.dyn_peer[159] 	lookupTimeSig:mean 	2.2357142857143
scalar Network.dyn_peer[159] 	lookupStabilitySig:mean 	0.94017290975899
scalar Network.dyn_peer[159] 	lookupHopsSig:mean 	21.428571428571
scalar Network.dyn_peer[160] 	lookupTimeSig:mean 	1.475
scalar Network.dyn_peer[160] 	lookupStabilitySig:mean 	0.91699992108624
scalar Network.dyn_peer[160] 	lookupHopsSig:mean 	13.875
scalar Network.dyn_peer[161] 	lookupTimeSig:mean 	2.5142857142857
scalar Network.dyn_peer[161] 	lookupStabilitySig:mean 	0.93799687669213
scalar Network.dyn_peer[161] 	lookupHopsSig:mean 	24.214285714286
scalar Network.dyn_peer[162] 	lookupTimeSig:mean 	3.0611111111111
scalar Network.dyn_peer[162] 	lookupStabilitySig:mean 	0.95179810804418
scalar Network.dyn_peer[162] 	lookupHopsSig:mean 	29.666666666667
scalar Network.dyn_peer[163] 	lookupTimeSig:mean 	2.675
scalar Network.dyn_peer[163] 	lookupStabilitySig:mean 	0.92955029181515
scalar Network.dyn_peer[163] 	lookupHopsSig:mean 	25.833333333333
scalar Network.dyn_peer[164] 	lookupTimeSig:mean 	2.9705882352941
scalar Network.dyn_peer[164] 	lookupStabilitySig:mean 	0.95276918986757
scalar Network.dyn_peer[164] 	lookupHopsSig:mean 	28.764705882353
scalar Network.dyn_peer[165] 	lookupTimeSig:mean 	2.2807692307692
scalar Network.dyn_peer[165] 	lookupStabilitySig:mean 	0.97392601130279
scalar Network.dyn_peer[165] 	lookupHopsSig:mean 	21.846153846154
scalar Network.dyn_peer[166] 	lookupTimeSig:mean 	2.5277777777778
scalar Network.dyn_peer[166] 	lookupStabilitySig:mean 	0.95355235826638
scalar Network.dyn_peer[166] 	lookupHopsSig:mean 	24.333333333333
scalar Network.dyn_peer[167] 	lookupTimeSig:mean 	2.05
scalar Network.dyn_peer[167] 	lookupStabilitySig:mean 	0.96384099950956
scalar Network.dyn_peer[167] 	lookupHopsSig:mean 	19.5625
scalar Network.dyn_peer[168] 	lookupTimeSig:mean 	1.6071428571429
scalar Network.dyn_peer[168] 	lookupStabilitySig:mean 	0.95073269161263
scalar Network.dyn_peer[168] 	lookupHopsSig:mean 	15.142857142857
scalar Network.dyn_peer[169] 	lookupTimeSig:mean 	2.8733333333333
scalar Network.dyn_peer[169] 	lookupStabilitySig:mean 	0.94315569500128
scalar Network.dyn_peer[169] 	lookupHopsSig:mean 	27.8
scalar Network.dyn_peer[170] 	lookupTimeSig:mean 	2.9666666666667
scalar Network.dyn_peer[170] 	lookupStabilitySig:mean 	0.95130109259238
scalar Network.dyn_peer[170] 	lookupHopsSig:mean 	28.722222222222
scalar Network.dyn_peer[171] 	lookupTimeSig:mean 	2.42
scalar Network.dyn_peer[171] 	lookupStabilitySig:mean 	0.94003518745303
scalar Network.dyn_peer[171] 	lookupHopsSig:mean 	23.266666666667
scalar Network.dyn_peer[172] 	lookupTimeSig:mean 	2.7210526315789
scalar Network.dyn_peer[172] 	lookupStabilitySig:mean 	0.95522773809927
scalar Network.dyn_peer[172] 	lookupHopsSig:mean 	26.263157894737
scalar Network.dyn_peer[173] 	lookupTimeSig:mean 	1.5058823529412
scalar Network.dyn_peer[173] 	lookupStabilitySig:mean 	0.95221736101324
scalar Network.dyn_peer[173] 	lookupHopsSig:mean 	14.117647058824
scalar Network.dyn_peer[174] 	lookupTimeSig:mean 	2.4421052631579
scalar Network.dyn_peer[174] 	lookupStabilitySig:mean 	0.95441573265156
scalar Network.dyn_peer[174] 	lookupHopsSig:mean 	23.473684210526
scalar Network.dyn_peer[175] 	lookupTimeSig:mean 	1.7684210526316
scalar Network.dyn_peer[175] 	lookupStabilitySig:mean 	0.95770859929096
scalar Network.dyn_peer[175] 	lookupHopsSig:mean 	16.736842105263
scalar Network.dyn_peer[176] 	lookupTimeSig:mean 	2.5611111111111
scalar Network.dyn_peer[176] 	lookupStabilitySig:mean 	0.9511838933039
scalar Network.dyn_peer[176] 	lookupHopsSig:mean 	24.666666666667
scalar Network.dyn_peer[177] 	lookupTimeSig:mean 	2.49375
scalar Network.dyn_peer[177] 	lookupStabilitySig:mean 	0.9539561448837
scalar Network.dyn_peer[177] 	lookupHopsSig:mean 	24
scalar Network.dyn_peer[178] 	lookupTimeSig:mean 	2.7058823529412
scalar Network.dyn_peer[178] 	lookupStabilitySig:mean 	0.96331240328522
scalar Network.dyn_peer[178] 	lookupHopsSig:mean 	26.117647058824
scalar Network.dyn_peer[179] 	lookupTimeSig:mean 	2.4263157894737
scalar Network.dyn_peer[179] 	lookupStabilitySig:mean 	0.95880471021366
scalar Network.dyn_peer[179] 	lookupHopsSig:mean 	23.315789473684
scalar Network.dyn_peer[180] 	lookupTimeSig:mean 	2.4
scalar Network.dyn_peer[180] 	lookupStabilitySig:mean 	0.91836019099823
scalar Network.dyn_peer[180] 	lookupHopsSig:mean 	23.142857142857
scalar Network.dyn_peer[181] 	lookupTimeSig:mean 	2.6357142857143
scalar Network.dyn_peer[181] 	lookupStabilitySig:mean 	0.95570176849807
scalar Network.dyn_peer[181] 	lookupHopsSig:mean 	25.428571428571
scalar Network.dyn_peer[182] 	lookupTimeSig:mean 	3.2142857142857
scalar Network.dyn_peer[182] 	lookupStabilitySig:mean 	0.95319057344126
scalar Network.dyn_peer[182] 	lookupHopsSig:mean 	31.214285714286
scalar Network.dyn_peer[183] 	lookupTimeSig:mean 	2.6625
scalar Network.dyn_peer[183] 	lookupStabilitySig:mean 	0.94638148177182
scalar Network.dyn_peer[183] 	lookupHopsSig:mean 	25.6875
scalar Network.dyn_peer[184] 	lookupTimeSig:mean 	2.5533333333333
scalar Network.dyn_peer[184] 	lookupStabilitySig:mean 	0.96004297708472
scalar Network.dyn_peer[184] 	lookupHopsSig:mean 	24.6
scalar Network.dyn_peer[185] 	lookupTimeSig:mean 	1.8923076923077
scalar Network.dyn_peer[185] 	lookupStabilitySig:mean 	0.95229234575079
scalar Network.dyn_peer[185] 	lookupHopsSig:mean 	18
scalar Network.dyn_peer[186] 	lookupTimeSig:mean 	2.97
scalar Network.dyn_peer[186] 	lookupStabilitySig:mean 	0.94011261691339
scalar Network.dyn_peer[186] 	lookupHopsSig:mean 	28.8
scalar Network.dyn_peer[187] 	lookupTimeSig:mean 	3.125
scalar Network.dyn_peer[187] 	lookupStabilitySig:mean 	0.94167165931625
scalar Network.dyn_peer[187] 	lookupHopsSig:mean 	30.333333333333
scalar Network.dyn_peer[188] 	lookupTimeSig:mean 	2.3133333333333
scalar Network.dyn_peer[188] 	lookupStabilitySig:mean 	0.94888993461306
scalar Network.dyn_peer[188] 	lookupHopsSig:mean 	22.2
scalar Network.dyn_peer[189] 	lookupTimeSig:mean 	2.3
scalar Network.dyn_peer[189] 	lookupStabilitySig:mean 	0.95666762574968
scalar Network.dyn_peer[189] 	lookupHopsSig:mean 	22.052631578947
scalar Network.dyn_peer[190] 	lookupTimeSig:mean 	1.9611111111111
scalar Network.dyn_peer[190] 	lookupStabilitySig:mean 	0.95806693901411
scalar Network.dyn_peer[190] 	lookupHopsSig:mean 	18.666666666667
scalar Network.dyn_peer[191] 	lookupTimeSig:mean 	2.375
scalar Network.dyn_peer[191] 	lookupStabilitySig:mean 	0.95873940581805
scalar Network.dyn_peer[191] 	lookupHopsSig:mean 	22.8125
scalar Network.dyn_peer[192] 	lookupTimeSig:mean 	2.79375
scalar Network.dyn_peer[192] 	lookupStabilitySig:mean 	0.9481786848628
scalar Network.dyn_peer[192] 	lookupHopsSig:mean 	27
scalar Network.dyn_peer[193] 	lookupTimeSig:mean 	1.7733333333333
scalar Network.dyn_peer[193] 	lookupStabilitySig:mean 	0.9523758161813
scalar Network.dyn_peer[193] 	lookupHopsSig:mean 	16.8
scalar Network.dyn_peer[194] 	lookupTimeSig:mean 	2.2
scalar Network.dyn_peer[194] 	lookupStabilitySig:mean 	0.96550294395536
scalar Network.dyn_peer[194] 	lookupHopsSig:mean 	21.04
scalar Network.dyn_peer[195] 	lookupTimeSig:mean 	3.025
scalar Network.dyn_peer[195] 	lookupStabilitySig:mean 	0.95178882131586
scalar Network.dyn_peer[195] 	lookupHopsSig:mean 	29.3125
scalar Network.dyn_peer[196] 	lookupTimeSig:mean 	2.6310344827586
scalar Network.dyn_peer[196] 	lookupStabilitySig:mean 	0.97016422852777
scalar Network.dyn_peer[196] 	lookupHopsSig:mean 	25.344827586207
scalar Network.dyn_peer[197] 	lookupTimeSig:mean 	2.1363636363636
scalar Network.dyn_peer[197] 	lookupStabilitySig:mean 	0.94121867756952
scalar Network.dyn_peer[197] 	lookupHopsSig:mean 	20.454545454545
scalar Network.dyn_peer[198] 	lookupTimeSig:mean 	2.1052631578947
scalar Network.dyn_peer[198] 	lookupStabilitySig:mean 	0.96125551775147
scalar Network.dyn_peer[198] 	lookupHopsSig:mean 	20.105263157895
scalar Network.dyn_peer[199] 	lookupTimeSig:mean 	1.8909090909091
scalar Network.dyn_peer[199] 	lookupStabilitySig:mean 	0.9488571324301
scalar Network.dyn_peer[199] 	lookupHopsSig:mean 	18
scalar Network.dyn_peer[200] 	lookupTimeSig:mean 	2.6230769230769
scalar Network.dyn_peer[200] 	lookupStabilitySig:mean 	0.97305527985848
scalar Network.dyn_peer[200] 	lookupHopsSig:mean 	25.269230769231
scalar Network.dyn_peer[201] 	lookupTimeSig:mean 	3.5333333333333
scalar Network.dyn_peer[201] 	lookupStabilitySig:mean 	0.95939677300242
scalar Network.dyn_peer[201] 	lookupHopsSig:mean 	34.4
scalar Network.dyn_peer[202] 	lookupTimeSig:mean 	1.95625
scalar Network.dyn_peer[202] 	lookupStabilitySig:mean 	0.95206514721212
scalar Network.dyn_peer[202] 	lookupHopsSig:mean 	18.625
scalar Network.dyn_peer[203] 	lookupTimeSig:mean 	2.9647058823529
scalar Network.dyn_peer[203] 	lookupStabilitySig:mean 	0.94984606757541
scalar Network.dyn_peer[203] 	lookupHopsSig:mean 	28.705882352941
scalar Network.dyn_peer[204] 	lookupTimeSig:mean 	2.6266666666667
scalar Network.dyn_peer[204] 	lookupStabilitySig:mean 	0.95312419806918
scalar Network.dyn_peer[204] 	lookupHopsSig:mean 	25.333333333333
scalar Network.dyn_peer[205] 	lookupTimeSig:mean 	2.6428571428571
scalar Network.dyn_peer[205] 	lookupStabilitySig:mean 	0.95284984480324
scalar Network.dyn_peer[205] 	lookupHopsSig:mean 	25.5
scalar Network.dyn_peer[206] 	lookupTimeSig:mean 	3.6
scalar Network.dyn_peer[206] 	lookupStabilitySig:mean 	0.91257206969229
scalar Network.dyn_peer[206] 	lookupHopsSig:mean 	35.142857142857
scalar Network.dyn_peer[207] 	lookupTimeSig:mean 	3.2090909090909
scalar Network.dyn_peer[207] 	lookupStabilitySig:mean 	0.93907305869189
scalar Network.dyn_peer[207] 	lookupHopsSig:mean 	31.181818181818
scalar Network.dyn_peer[208] 	lookupTimeSig:mean 	2.6636363636364
scalar Network.dyn_peer[208] 	lookupStabilitySig:mean 	0.950530663048
scalar Network.dyn_peer[208] 	lookupHopsSig:mean 	25.727272727273
scalar Network.dyn_peer[209] 	lookupTimeSig:mean 	2.45625
scalar Network.dyn_peer[209] 	lookupStabilitySig:mean 	0.96552921787952
scalar Network.dyn_peer[209] 	lookupHopsSig:mean 	23.625
scalar Network.dyn_peer[210] 	lookupTimeSig:mean 	2.1166666666667
scalar Network.dyn_peer[210] 	lookupStabilitySig:mean 	0.95769398453801
scalar Network.dyn_peer[210] 	lookupHopsSig:mean 	20.222222222222
scalar Network.dyn_peer[211] 	lookupTimeSig:mean 	2.0217391304348
scalar Network.dyn_peer[211] 	lookupStabilitySig:mean 	0.96805349020692
scalar Network.dyn_peer[211] 	lookupHopsSig:mean 	19.260869565217
scalar Network.dyn_peer[212] 	lookupTimeSig:mean 	2.8277777777778
scalar Network.dyn_peer[212] 	lookupStabilitySig:mean 	0.96034331389496
scalar Network.dyn_peer[212] 	lookupHopsSig:mean 	27.333333333333
scalar Network.dyn_peer[213] 	lookupTimeSig:mean 	3.325
scalar Network.dyn_peer[213] 	lookupStabilitySig:mean 	0.96418879637495
scalar Network.dyn_peer[213] 	lookupHopsSig:mean 	32.3
scalar Network.dyn_peer[214] 	lookupTimeSig:mean 	1.6615384615385
scalar Network.dyn_peer[214] 	lookupStabilitySig:mean 	0.95318849811044
scalar Network.dyn_peer[214] 	lookupHopsSig:mean 	15.692307692308
scalar Network.dyn_peer[215] 	lookupTimeSig:mean 	3.09375
scalar Network.dyn_peer[215] 	lookupStabilitySig:mean 	0.96123654423718
scalar Network.dyn_peer[215] 	lookupHopsSig:mean 	30
scalar Network.dyn_peer[216] 	lookupTimeSig:mean 	2.5071428571429
scalar Network.dyn_peer[216] 	lookupStabilitySig:mean 	0.95115302110623
scalar Network.dyn_peer[216] 	lookupHopsSig:mean 	24.142857142857
scalar Network.dyn_peer[217] 	lookupTimeSig:mean 	3.1466666666667
scalar Network.dyn_peer[217] 	lookupStabilitySig:mean 	0.94647389271607
scalar Network.dyn_peer[217] 	lookupHopsSig:mean 	30.533333333333
scalar Network.dyn_peer[218] 	lookupTimeSig:mean 	2.1055555555556
scalar Network.dyn_peer[218] 	lookupStabilitySig:mean 	0.96180997076186
scalar Network.dyn_peer[218] 	lookupHopsSig:mean 	20.111111111111
scalar Network.dyn_peer[219] 	lookupTimeSig:mean 	2.7875
scalar Network.dyn_peer[219] 	lookupStabilitySig:mean 	0.93840092420578
scalar Network.dyn_peer[219] 	lookupHopsSig:mean 	27
scalar Network.dyn_peer[220] 	lookupTimeSig:mean 	1.8285714285714
scalar Network.dyn_peer[220] 	lookupStabilitySig:mean 	0.96393151980426
scalar Network.dyn_peer[220] 	lookupHopsSig:mean 	17.357142857143
scalar Network.dyn_peer[221] 	lookupTimeSig:mean 	2.91
scalar Network.dyn_peer[221] 	lookupStabilitySig:mean 	0.95428609902156
scalar Network.dyn_peer[221] 	lookupHopsSig:mean 	28.2
scalar Network.dyn_peer[222] 	lookupTimeSig:mean 	2.3178571428571
scalar Network.dyn_peer[222] 	lookupStabilitySig:mean 	0.97202207010871
scalar Network.dyn_peer[222] 	lookupHopsSig:mean 	22.214285714286
scalar Network.dyn_peer[223] 	lookupTimeSig:mean 	2.4142857142857
scalar Network.dyn_peer[223] 	lookupStabilitySig:mean 	0.95092080234151
scalar Network.dyn_peer[223] 	lookupHopsSig:mean 	23.214285714286
scalar Network.dyn_peer[224] 	lookupTimeSig:mean 	2.8692307692308
scalar Network.dyn_peer[224] 	lookupStabilitySig:mean 	0.95295267007672
scalar Network.dyn_peer[224] 	lookupHopsSig:mean 	27.769230769231
scalar Network.dyn_peer[225] 	lookupTimeSig:mean 	1.99
scalar Network.dyn_peer[225] 	lookupStabilitySig:mean 	0.93997444231063
scalar Network.dyn_peer[225] 	lookupHopsSig:mean 	19
scalar Network.dyn_peer[226] 	lookupTimeSig:mean 	2.1363636363636
scalar Network.dyn_peer[226] 	lookupStabilitySig:mean 	0.95372289313342
scalar Network.dyn_peer[226] 	lookupHopsSig:mean 	20.454545454545
scalar Network.dyn_peer[227] 	lookupTimeSig:mean 	1.6888888888889
scalar Network.dyn_peer[227] 	lookupStabilitySig:mean 	0.96224048760875
scalar Network.dyn_peer[227] 	lookupHopsSig:mean 	15.944444444444
scalar Network.dyn_peer[228] 	lookupTimeSig:mean 	2.4458333333333
scalar Network.dyn_peer[228] 	lookupStabilitySig:mean 	0.96825248472548
scalar Network.dyn_peer[228] 	lookupHopsSig:mean 	23.5
scalar Network.dyn_peer[229] 	lookupTimeSig:mean 	2.7052631578947
scalar Network.dyn_peer[229] 	lookupStabilitySig:mean 	0.96628036906355
scalar Network.dyn_peer[229] 	lookupHopsSig:mean 	26.105263157895
scalar Network.dyn_peer[230] 	lookupTimeSig:mean 	2.8375
scalar Network.dyn_peer[230] 	lookupStabilitySig:mean 	0.9211128919851
scalar Network.dyn_peer[230] 	lookupHopsSig:mean 	27.5
scalar Network.dyn_peer[231] 	lookupTimeSig:mean 	2.5038461538462
scalar Network.dyn_peer[231] 	lookupStabilitySig:mean 	0.96886232729034
scalar Network.dyn_peer[231] 	lookupHopsSig:mean 	24.076923076923
scalar Network.dyn_peer[232] 	lookupTimeSig:mean 	3.06
scalar Network.dyn_peer[232] 	lookupStabilitySig:mean 	0.92042883802205
scalar Network.dyn_peer[232] 	lookupHopsSig:mean 	29.8
scalar Network.dyn_peer[233] 	lookupTimeSig:mean 	2.225
scalar Network.dyn_peer[233] 	lookupStabilitySig:mean 	0.94104206507715
scalar Network.dyn_peer[233] 	lookupHopsSig:mean 	21.333333333333
scalar Network.dyn_peer[234] 	lookupTimeSig:mean 	2.8
scalar Network.dyn_peer[234] 	lookupStabilitySig:mean 	0.97377827539458
scalar Network.dyn_peer[234] 	lookupHopsSig:mean 	27.0625
scalar Network.dyn_peer[235] 	lookupTimeSig:mean 	1.61
scalar Network.dyn_peer[235] 	lookupStabilitySig:mean 	0.96155296191573
scalar Network.dyn_peer[235] 	lookupHopsSig:mean 	15.2
scalar Network.dyn_peer[236] 	lookupTimeSig:mean 	2.5933333333333
scalar Network.dyn_peer[236] 	lookupStabilitySig:mean 	0.96275237595352
scalar Network.dyn_peer[236] 	lookupHopsSig:mean 	25
scalar Network.dyn_peer[237] 	lookupTimeSig:mean 	2.5923076923077
scalar Network.dyn_peer[237] 	lookupStabilitySig:mean 	0.96081492539424
scalar Network.dyn_peer[237] 	lookupHopsSig:mean 	25
scalar Network.dyn_peer[238] 	lookupTimeSig:mean 	2.6769230769231
scalar Network.dyn_peer[238] 	lookupStabilitySig:mean 	0.94790685234162
scalar Network.dyn_peer[238] 	lookupHopsSig:mean 	25.846153846154
scalar Network.dyn_peer[239] 	lookupTimeSig:mean 	2.5157894736842
scalar Network.dyn_peer[239] 	lookupStabilitySig:mean 	0.96440091593142
scalar Network.dyn_peer[239] 	lookupHopsSig:mean 	24.210526315789
scalar Network.dyn_peer[240] 	lookupTimeSig:mean 	2.3944444444444
scalar Network.dyn_peer[240] 	lookupStabilitySig:mean 	0.95854499466562
scalar Network.dyn_peer[240] 	lookupHopsSig:mean 	23
scalar Network.dyn_peer[241] 	lookupTimeSig:mean 	2.6705882352941
scalar Network.dyn_peer[241] 	lookupStabilitySig:mean 	0.95930394272813
scalar Network.dyn_peer[241] 	lookupHopsSig:mean 	25.764705882353
scalar Network.dyn_peer[242] 	lookupTimeSig:mean 	1.6647058823529
scalar Network.dyn_peer[242] 	lookupStabilitySig:mean 	0.97158947132309
scalar Network.dyn_peer[242] 	lookupHopsSig:mean 	15.705882352941
scalar Network.dyn_peer[243] 	lookupTimeSig:mean 	3.19
scalar Network.dyn_peer[243] 	lookupStabilitySig:mean 	0.95138687640429
scalar Network.dyn_peer[243] 	lookupHopsSig:mean 	31
scalar Network.dyn_peer[244] 	lookupTimeSig:mean 	3.0846153846154
scalar Network.dyn_peer[244] 	lookupStabilitySig:mean 	0.96493249855792
scalar Network.dyn_peer[244] 	lookupHopsSig:mean 	29.923076923077
scalar Network.dyn_peer[245] 	lookupTimeSig:mean 	3.4142857142857
scalar Network.dyn_peer[245] 	lookupStabilitySig:mean 	0.9558405188644
scalar Network.dyn_peer[245] 	lookupHopsSig:mean 	33.214285714286
scalar Network.dyn_peer[246] 	lookupTimeSig:mean 	2.4909090909091
scalar Network.dyn_peer[246] 	lookupStabilitySig:mean 	0.97115089594048
scalar Network.dyn_peer[246] 	lookupHopsSig:mean 	23.954545454545
scalar Network.dyn_peer[247] 	lookupTimeSig:mean 	2.05
scalar Network.dyn_peer[247] 	lookupStabilitySig:mean 	0.95321246763758
scalar Network.dyn_peer[247] 	lookupHopsSig:mean 	19.571428571429
scalar Network.dyn_peer[248] 	lookupTimeSig:mean 	3.7933333333333
scalar Network.dyn_peer[248] 	lookupStabilitySig:mean 	0.9572197546872
scalar Network.dyn_peer[248] 	lookupHopsSig:mean 	37
scalar Network.dyn_peer[249] 	lookupTimeSig:mean 	2.2142857142857
scalar Network.dyn_peer[249] 	lookupStabilitySig:mean 	0.95508736178246
scalar Network.dyn_peer[249] 	lookupHopsSig:mean 	21.214285714286
scalar Network.dyn_peer[250] 	lookupTimeSig:mean 	1.7916666666667
scalar Network.dyn_peer[250] 	lookupStabilitySig:mean 	0.95864080682319
scalar Network.dyn_peer[250] 	lookupHopsSig:mean 	17
scalar Network.dyn_peer[251] 	lookupTimeSig:mean 	1.8
scalar Network.dyn_peer[251] 	lookupStabilitySig:mean 	0.95198946124098
scalar Network.dyn_peer[251] 	lookupHopsSig:mean 	17.083333333333
scalar Network.dyn_peer[252] 	lookupTimeSig:mean 	1.9
scalar Network.dyn_peer[252] 	lookupStabilitySig:mean 	0.93345467709005
scalar Network.dyn_peer[252] 	lookupHopsSig:mean 	18.2
scalar Network.dyn_peer[253] 	lookupTimeSig:mean 	2.2857142857143
scalar Network.dyn_peer[253] 	lookupStabilitySig:mean 	0.96964693404291
scalar Network.dyn_peer[253] 	lookupHopsSig:mean 	21.904761904762
scalar Network.dyn_peer[254] 	lookupTimeSig:mean 	3.1076923076923
scalar Network.dyn_peer[254] 	lookupStabilitySig:mean 	0.95527231403125
scalar Network.dyn_peer[254] 	lookupHopsSig:mean 	30.153846153846
scalar Network.dyn_peer[255] 	lookupTimeSig:mean 	2.24375
scalar Network.dyn_peer[255] 	lookupStabilitySig:mean 	0.9595407955203
scalar Network.dyn_peer[255] 	lookupHopsSig:mean 	21.5
scalar Network.dyn_peer[256] 	lookupTimeSig:mean 	2.48
scalar Network.dyn_peer[256] 	lookupStabilitySig:mean 	0.9358100567013
scalar Network.dyn_peer[256] 	lookupHopsSig:mean 	24
scalar Network.dyn_peer[257] 	lookupTimeSig:mean 	1.6409090909091
scalar Network.dyn_peer[257] 	lookupStabilitySig:mean 	0.97222086668692
scalar Network.dyn_peer[257] 	lookupHopsSig:mean 	15.454545454545
scalar Network.dyn_peer[258] 	lookupTimeSig:mean 	2.8857142857143
scalar Network.dyn_peer[258] 	lookupStabilitySig:mean 	0.95931538510402
scalar Network.dyn_peer[258] 	lookupHopsSig:mean 	27.928571428571
scalar Network.dyn_peer[259] 	lookupTimeSig:mean 	2.2722222222222
scalar Network.dyn_peer[259] 	lookupStabilitySig:mean 	0.95946396535469
scalar Network.dyn_peer[259] 	lookupHopsSig:mean 	21.777777777778
scalar Network.dyn_peer[260] 	lookupTimeSig:mean 	2.0583333333333
scalar Network.dyn_peer[260] 	lookupStabilitySig:mean 	0.94865838290813
scalar Network.dyn_peer[260] 	lookupHopsSig:mean 	19.666666666667
scalar Network.dyn_peer[261] 	lookupTimeSig:mean 	2.05
scalar Network.dyn_peer[261] 	lookupStabilitySig:mean 	0.94509004093707
scalar Network.dyn_peer[261] 	lookupHopsSig:mean 	19.6
scalar Network.dyn_peer[262] 	lookupTimeSig:mean 	1.3375
scalar Network.dyn_peer[262] 	lookupStabilitySig:mean 	0.94038188812556
scalar Network.dyn_peer[262] 	lookupHopsSig:mean 	12.5
scalar Network.dyn_peer[263] 	lookupTimeSig:mean 	2.0125
scalar Network.dyn_peer[263] 	lookupStabilitySig:mean 	0.96364104188251
scalar Network.dyn_peer[263] 	lookupHopsSig:mean 	19.1875
scalar Network.dyn_peer[264] 	lookupTimeSig:mean 	2.652380952381
scalar Network.dyn_peer[264] 	lookupStabilitySig:mean 	0.967387568893
scalar Network.dyn_peer[264] 	lookupHopsSig:mean 	25.571428571429
scalar Network.dyn_peer[265] 	lookupTimeSig:mean 	2.2846153846154
scalar Network.dyn_peer[265] 	lookupStabilitySig:mean 	0.95116889548416
scalar Network.dyn_peer[265] 	lookupHopsSig:mean 	21.923076923077
scalar Network.dyn_peer[266] 	lookupTimeSig:mean 	3.5181818181818
scalar Network.dyn_peer[266] 	lookupStabilitySig:mean 	0.94956783383069
scalar Network.dyn_peer[266] 	lookupHopsSig:mean 	34.272727272727
scalar Network.dyn_peer[267] 	lookupTimeSig:mean 	2.9913043478261
scalar Network.dyn_peer[267] 	lookupStabilitySig:mean 	0.96826843532693
scalar Network.dyn_peer[267] 	lookupHopsSig:mean 	28.95652173913
scalar Network.dyn_peer[268] 	lookupTimeSig:mean 	2.0181818181818
scalar Network.dyn_peer[268] 	lookupStabilitySig:mean 	0.96631435110149
scalar Network.dyn_peer[268] 	lookupHopsSig:mean 	19.272727272727
scalar Network.dyn_peer[269] 	lookupTimeSig:mean 	2.81875
scalar Network.dyn_peer[269] 	lookupStabilitySig:mean 	0.96173732008901
scalar Network.dyn_peer[269] 	lookupHopsSig:mean 	27.25
scalar Network.dyn_peer[270] 	lookupTimeSig:mean 	2.62
scalar Network.dyn_peer[270] 	lookupStabilitySig:mean 	0.95240168469027
scalar Network.dyn_peer[270] 	lookupHopsSig:mean 	25.266666666667
scalar Network.dyn_peer[271] 	lookupTimeSig:mean 	2.325
scalar Network.dyn_peer[271] 	lookupStabilitySig:mean 	0.95892953724251
scalar Network.dyn_peer[271] 	lookupHopsSig:mean 	22.3125
scalar Network.dyn_peer[272] 	lookupTimeSig:mean 	2.0923076923077
scalar Network.dyn_peer[272] 	lookupStabilitySig:mean 	0.95944960261337
scalar Network.dyn_peer[272] 	lookupHopsSig:mean 	20
scalar Network.dyn_peer[273] 	lookupTimeSig:mean 	2.9074074074074
scalar Network.dyn_peer[273] 	lookupStabilitySig:mean 	0.97222055930696
scalar Network.dyn_peer[273] 	lookupHopsSig:mean 	28.111111111111
scalar Network.dyn_peer[274] 	lookupTimeSig:mean 	2.8666666666667
scalar Network.dyn_peer[274] 	lookupStabilitySig:mean 	0.96959943718442
scalar Network.dyn_peer[274] 	lookupHopsSig:mean 	27.708333333333
scalar Network.dyn_peer[275] 	lookupTimeSig:mean 	3.1
scalar Network.dyn_peer[275] 	lookupStabilitySig:mean 	0.96748652723797
scalar Network.dyn_peer[275] 	lookupHopsSig:mean 	30.076923076923
scalar Network.dyn_peer[276] 	lookupTimeSig:mean 	1.7166666666667
scalar Network.dyn_peer[276] 	lookupStabilitySig:mean 	0.95291601552162
scalar Network.dyn_peer[276] 	lookupHopsSig:mean 	16.25
scalar Network.dyn_peer[277] 	lookupTimeSig:mean 	1.025
scalar Network.dyn_peer[277] 	lookupStabilitySig:mean 	0.92279020114802
scalar Network.dyn_peer[277] 	lookupHopsSig:mean 	9.5
scalar Network.dyn_peer[278] 	lookupTimeSig:mean 	2.275
scalar Network.dyn_peer[278] 	lookupStabilitySig:mean 	0.93136138911359
scalar Network.dyn_peer[278] 	lookupHopsSig:mean 	21.875
scalar Network.dyn_peer[279] 	lookupTimeSig:mean 	2.025
scalar Network.dyn_peer[279] 	lookupStabilitySig:mean 	0.92640615138225
scalar Network.dyn_peer[279] 	lookupHopsSig:mean 	19.5
scalar Network.dyn_peer[280] 	lookupTimeSig:mean 	2.1642857142857
scalar Network.dyn_peer[280] 	lookupStabilitySig:mean 	0.96144855544636
scalar Network.dyn_peer[280] 	lookupHopsSig:mean 	20.714285714286
scalar Network.dyn_peer[281] 	lookupTimeSig:mean 	3.0333333333333
scalar Network.dyn_peer[281] 	lookupStabilitySig:mean 	0.95215955423191
scalar Network.dyn_peer[281] 	lookupHopsSig:mean 	29.416666666667
scalar Network.dyn_peer[282] 	lookupTimeSig:mean 	1.3666666666667
scalar Network.dyn_peer[282] 	lookupStabilitySig:mean 	0.89839189747969
scalar Network.dyn_peer[282] 	lookupHopsSig:mean 	13
scalar Network.dyn_peer[283] 	lookupTimeSig:mean 	3.4117647058824
scalar Network.dyn_peer[283] 	lookupStabilitySig:mean 	0.96390334546895
scalar Network.dyn_peer[283] 	lookupHopsSig:mean 	33.176470588235
scalar Network.dyn_peer[284] 	lookupTimeSig:mean 	2.8833333333333
scalar Network.dyn_peer[284] 	lookupStabilitySig:mean 	0.95832576672547
scalar Network.dyn_peer[284] 	lookupHopsSig:mean 	27.916666666667
scalar Network.dyn_peer[285] 	lookupTimeSig:mean 	1.4636363636364
scalar Network.dyn_peer[285] 	lookupStabilitySig:mean 	0.96533381401307
scalar Network.dyn_peer[285] 	lookupHopsSig:mean 	13.727272727273
scalar Network.dyn_peer[286] 	lookupTimeSig:mean 	2.1818181818182
scalar Network.dyn_peer[286] 	lookupStabilitySig:mean 	0.96125304497863
scalar Network.dyn_peer[286] 	lookupHopsSig:mean 	20.909090909091
scalar Network.dyn_peer[287] 	lookupTimeSig:mean 	1.7
scalar Network.dyn_peer[287] 	lookupStabilitySig:mean 	0.952573382211
scalar Network.dyn_peer[287] 	lookupHopsSig:mean 	16.090909090909
scalar Network.dyn_peer[288] 	lookupTimeSig:mean 	3.7733333333333
scalar Network.dyn_peer[288] 	lookupStabilitySig:mean 	0.96811344819143
scalar Network.dyn_peer[288] 	lookupHopsSig:mean 	36.8
scalar Network.dyn_peer[289] 	lookupTimeSig:mean 	2.7733333333333
scalar Network.dyn_peer[289] 	lookupStabilitySig:mean 	0.95500043537468
scalar Network.dyn_peer[289] 	lookupHopsSig:mean 	26.8
scalar Network.dyn_peer[290] 	lookupTimeSig:mean 	2.9857142857143
scalar Network.dyn_peer[290] 	lookupStabilitySig:mean 	0.96579777738745
scalar Network.dyn_peer[290] 	lookupHopsSig:mean 	28.904761904762
scalar Network.dyn_peer[291] 	lookupTimeSig:mean 	2.675
scalar Network.dyn_peer[291] 	lookupStabilitySig:mean 	0.96159420042144
scalar Network.dyn_peer[291] 	lookupHopsSig:mean 	25.833333333333
scalar Network.dyn_peer[292] 	lookupTimeSig:mean 	1.8428571428571
scalar Network.dyn_peer[292] 	lookupStabilitySig:mean 	0.97663878235367
scalar Network.dyn_peer[292] 	lookupHopsSig:mean 	17.464285714286
scalar Network.dyn_peer[293] 	lookupTimeSig:mean 	2.8571428571429
scalar Network.dyn_peer[293] 	lookupStabilitySig:mean 	0.96349168708548
scalar Network.dyn_peer[293] 	lookupHopsSig:mean 	27.642857142857
scalar Network.dyn_peer[294] 	lookupTimeSig:mean 	2.2333333333333
scalar Network.dyn_peer[294] 	lookupStabilitySig:mean 	0.9568748154367
scalar Network.dyn_peer[294] 	lookupHopsSig:mean 	21.416666666667
scalar Network.dyn_peer[295] 	lookupTimeSig:mean 	2.35
scalar Network.dyn_peer[295] 	lookupStabilitySig:mean 	0.95400242047617
scalar Network.dyn_peer[295] 	lookupHopsSig:mean 	22.625
scalar Network.dyn_peer[296] 	lookupTimeSig:mean 	2.79
scalar Network.dyn_peer[296] 	lookupStabilitySig:mean 	0.95690900548361
scalar Network.dyn_peer[296] 	lookupHopsSig:mean 	27
scalar Network.dyn_peer[297] 	lookupTimeSig:mean 	2.6409090909091
scalar Network.dyn_peer[297] 	lookupStabilitySig:mean 	0.96657976415008
scalar Network.dyn_peer[297] 	lookupHopsSig:mean 	25.454545454545
scalar Network.dyn_peer[298] 	lookupTimeSig:mean 	2.1846153846154
scalar Network.dyn_peer[298] 	lookupStabilitySig:mean 	0.97010363950036
scalar Network.dyn_peer[298] 	lookupHopsSig:mean 	20.923076923077
scalar Network.dyn_peer[299] 	lookupTimeSig:mean 	2.895
scalar Network.dyn_peer[299] 	lookupStabilitySig:mean 	0.9715880038857
scalar Network.dyn_peer[299] 	lookupHopsSig:mean 	28
scalar Network.dyn_peer[300] 	lookupTimeSig:mean 	2.0714285714286
scalar Network.dyn_peer[300] 	lookupStabilitySig:mean 	0.97700426947059
scalar Network.dyn_peer[300] 	lookupHopsSig:mean 	19.785714285714
scalar Network.dyn_peer[301] 	lookupTimeSig:mean 	3.0611111111111
scalar Network.dyn_peer[301] 	lookupStabilitySig:mean 	0.96604266881736
scalar Network.dyn_peer[301] 	lookupHopsSig:mean 	29.666666666667
scalar Network.dyn_peer[302] 	lookupTimeSig:mean 	2.5222222222222
scalar Network.dyn_peer[302] 	lookupStabilitySig:mean 	0.94401778032382
scalar Network.dyn_peer[302] 	lookupHopsSig:mean 	24.333333333333
scalar Network.dyn_peer[303] 	lookupTimeSig:mean 	1.7454545454545
scalar Network.dyn_peer[303] 	lookupStabilitySig:mean 	0.95598490095951
scalar Network.dyn_peer[303] 	lookupHopsSig:mean 	16.545454545455
scalar Network.dyn_peer[304] 	lookupTimeSig:mean 	2.6363636363636
scalar Network.dyn_peer[304] 	lookupStabilitySig:mean 	0.9461919776037
scalar Network.dyn_peer[304] 	lookupHopsSig:mean 	25.454545454545
scalar Network.dyn_peer[305] 	lookupTimeSig:mean 	2.63125
scalar Network.dyn_peer[305] 	lookupStabilitySig:mean 	0.96248919240315
scalar Network.dyn_peer[305] 	lookupHopsSig:mean 	25.375
scalar Network.dyn_peer[306] 	lookupTimeSig:mean 	2.8
scalar Network.dyn_peer[306] 	lookupStabilitySig:mean 	0.96705105202273
scalar Network.dyn_peer[306] 	lookupHopsSig:mean 	27.055555555556
scalar Network.dyn_peer[307] 	lookupTimeSig:mean 	2.2
scalar Network.dyn_peer[307] 	lookupStabilitySig:mean 	0.97029818440205
scalar Network.dyn_peer[307] 	lookupHopsSig:mean 	21.0625
scalar Network.dyn_peer[308] 	lookupTimeSig:mean 	2.5576923076923
scalar Network.dyn_peer[308] 	lookupStabilitySig:mean 	0.97441394107255
scalar Network.dyn_peer[308] 	lookupHopsSig:mean 	24.615384615385
scalar Network.dyn_peer[309] 	lookupTimeSig:mean 	2.6214285714286
scalar Network.dyn_peer[309] 	lookupStabilitySig:mean 	0.96804273096911
scalar Network.dyn_peer[309] 	lookupHopsSig:mean 	25.285714285714
scalar Network.dyn_peer[310] 	lookupTimeSig:mean 	3.9142857142857
scalar Network.dyn_peer[310] 	lookupStabilitySig:mean 	0.95996566266487
scalar Network.dyn_peer[310] 	lookupHopsSig:mean 	38.214285714286
scalar Network.dyn_peer[311] 	lookupTimeSig:mean 	2.4277777777778
scalar Network.dyn_peer[311] 	lookupStabilitySig:mean 	0.96611789681224
scalar Network.dyn_peer[311] 	lookupHopsSig:mean 	23.333333333333
scalar Network.dyn_peer[312] 	lookupTimeSig:mean 	3.0863636363636
scalar Network.dyn_peer[312] 	lookupStabilitySig:mean 	0.96802571183071
scalar Network.dyn_peer[312] 	lookupHopsSig:mean 	29.909090909091
scalar Network.dyn_peer[313] 	lookupTimeSig:mean 	2.5777777777778
scalar Network.dyn_peer[313] 	lookupStabilitySig:mean 	0.9699770862159
scalar Network.dyn_peer[313] 	lookupHopsSig:mean 	24.833333333333
scalar Network.dyn_peer[314] 	lookupTimeSig:mean 	2.368
scalar Network.dyn_peer[314] 	lookupStabilitySig:mean 	0.9765294973983
scalar Network.dyn_peer[314] 	lookupHopsSig:mean 	22.72
scalar Network.dyn_peer[315] 	lookupTimeSig:mean 	1.6954545454545
scalar Network.dyn_peer[315] 	lookupStabilitySig:mean 	0.97254559892992
scalar Network.dyn_peer[315] 	lookupHopsSig:mean 	16
scalar Network.dyn_peer[316] 	lookupTimeSig:mean 	2.3166666666667
scalar Network.dyn_peer[316] 	lookupStabilitySig:mean 	0.96044817372846
scalar Network.dyn_peer[316] 	lookupHopsSig:mean 	22.333333333333
scalar Network.dyn_peer[317] 	lookupTimeSig:mean 	2.4125
scalar Network.dyn_peer[317] 	lookupStabilitySig:mean 	0.97043280003709
scalar Network.dyn_peer[317] 	lookupHopsSig:mean 	23.1875
scalar Network.dyn_peer[318] 	lookupTimeSig:mean 	3.4615384615385
scalar Network.dyn_peer[318] 	lookupStabilitySig:mean 	0.95111554366751
scalar Network.dyn_peer[318] 	lookupHopsSig:mean 	33.692307692308
scalar Network.dyn_peer[319] 	lookupTimeSig:mean 	2.6695652173913
scalar Network.dyn_peer[319] 	lookupStabilitySig:mean 	0.97126038301655
scalar Network.dyn_peer[319] 	lookupHopsSig:mean 	25.739130434783
scalar Network.dyn_peer[320] 	lookupTimeSig:mean 	4.0090909090909
scalar Network.dyn_peer[320] 	lookupStabilitySig:mean 	0.94796898817136
scalar Network.dyn_peer[320] 	lookupHopsSig:mean 	39.181818181818
scalar Network.dyn_peer[321] 	lookupTimeSig:mean 	1.85625
scalar Network.dyn_peer[321] 	lookupStabilitySig:mean 	0.96220069452829
scalar Network.dyn_peer[321] 	lookupHopsSig:mean 	17.625
scalar Network.dyn_peer[322] 	lookupTimeSig:mean 	2.9555555555556
scalar Network.dyn_peer[322] 	lookupStabilitySig:mean 	0.96316431105758
scalar Network.dyn_peer[322] 	lookupHopsSig:mean 	28.611111111111
scalar Network.dyn_peer[323] 	lookupTimeSig:mean 	2.775
scalar Network.dyn_peer[323] 	lookupStabilitySig:mean 	0.97751266805183
scalar Network.dyn_peer[323] 	lookupHopsSig:mean 	26.791666666667
scalar Network.dyn_peer[324] 	lookupTimeSig:mean 	2.44375
scalar Network.dyn_peer[324] 	lookupStabilitySig:mean 	0.96587248501601
scalar Network.dyn_peer[324] 	lookupHopsSig:mean 	23.5
scalar Network.dyn_peer[325] 	lookupTimeSig:mean 	2.0571428571429
scalar Network.dyn_peer[325] 	lookupStabilitySig:mean 	0.96998048401881
scalar Network.dyn_peer[325] 	lookupHopsSig:mean 	19.619047619048
scalar Network.dyn_peer[326] 	lookupTimeSig:mean 	2.2125
scalar Network.dyn_peer[326] 	lookupStabilitySig:mean 	0.96894157578936
scalar Network.dyn_peer[326] 	lookupHopsSig:mean 	21.1875
scalar Network.dyn_peer[327] 	lookupTimeSig:mean 	3.46875
scalar Network.dyn_peer[327] 	lookupStabilitySig:mean 	0.96527539513772
scalar Network.dyn_peer[327] 	lookupHopsSig:mean 	33.75
scalar Network.dyn_peer[328] 	lookupTimeSig:mean 	2.1846153846154
scalar Network.dyn_peer[328] 	lookupStabilitySig:mean 	0.9652769771906
scalar Network.dyn_peer[328] 	lookupHopsSig:mean 	20.923076923077
scalar Network.dyn_peer[329] 	lookupTimeSig:mean 	2.8263157894737
scalar Network.dyn_peer[329] 	lookupStabilitySig:mean 	0.96819891372549
scalar Network.dyn_peer[329] 	lookupHopsSig:mean 	27.315789473684
scalar Network.dyn_peer[330] 	lookupTimeSig:mean 	2.5571428571429
scalar Network.dyn_peer[330] 	lookupStabilitySig:mean 	0.9756975710514
scalar Network.dyn_peer[330] 	lookupHopsSig:mean 	24.619047619048
scalar Network.dyn_peer[331] 	lookupTimeSig:mean 	1.8785714285714
scalar Network.dyn_peer[331] 	lookupStabilitySig:mean 	0.96107505436521
scalar Network.dyn_peer[331] 	lookupHopsSig:mean 	17.857142857143
scalar Network.dyn_peer[332] 	lookupTimeSig:mean 	2.7588235294118
scalar Network.dyn_peer[332] 	lookupStabilitySig:mean 	0.96398790597039
scalar Network.dyn_peer[332] 	lookupHopsSig:mean 	26.647058823529
scalar Network.dyn_peer[333] 	lookupTimeSig:mean 	4.07
scalar Network.dyn_peer[333] 	lookupStabilitySig:mean 	0.94510014373809
scalar Network.dyn_peer[333] 	lookupHopsSig:mean 	39.8
scalar Network.dyn_peer[334] 	lookupTimeSig:mean 	1.7571428571429
scalar Network.dyn_peer[334] 	lookupStabilitySig:mean 	0.95091973324972
scalar Network.dyn_peer[334] 	lookupHopsSig:mean 	16.714285714286
scalar Network.dyn_peer[335] 	lookupTimeSig:mean 	3.4
scalar Network.dyn_peer[335] 	lookupStabilitySig:mean 	0.95805294560705
scalar Network.dyn_peer[335] 	lookupHopsSig:mean 	33.0625
scalar Network.dyn_peer[336] 	lookupTimeSig:mean 	2.76
scalar Network.dyn_peer[336] 	lookupStabilitySig:mean 	0.96639706129208
scalar Network.dyn_peer[336] 	lookupHopsSig:mean 	26.65
scalar Network.dyn_peer[337] 	lookupTimeSig:mean 	2.5529411764706
scalar Network.dyn_peer[337] 	lookupStabilitySig:mean 	0.96472368460587
scalar Network.dyn_peer[337] 	lookupHopsSig:mean 	24.588235294118
scalar Network.dyn_peer[338] 	lookupTimeSig:mean 	2.74
scalar Network.dyn_peer[338] 	lookupStabilitySig:mean 	0.91270939595997
scalar Network.dyn_peer[338] 	lookupHopsSig:mean 	26.6
scalar Network.dyn_peer[339] 	lookupTimeSig:mean 	2.2066666666667
scalar Network.dyn_peer[339] 	lookupStabilitySig:mean 	0.96899034532253
scalar Network.dyn_peer[339] 	lookupHopsSig:mean 	21.133333333333
scalar Network.dyn_peer[340] 	lookupTimeSig:mean 	2.7
scalar Network.dyn_peer[340] 	lookupStabilitySig:mean 	0.9638650341949
scalar Network.dyn_peer[340] 	lookupHopsSig:mean 	26.0625
scalar Network.dyn_peer[341] 	lookupTimeSig:mean 	2.77
scalar Network.dyn_peer[341] 	lookupStabilitySig:mean 	0.97200633866014
scalar Network.dyn_peer[341] 	lookupHopsSig:mean 	26.75
scalar Network.dyn_peer[342] 	lookupTimeSig:mean 	1.88
scalar Network.dyn_peer[342] 	lookupStabilitySig:mean 	0.9525246983394
scalar Network.dyn_peer[342] 	lookupHopsSig:mean 	17.9
scalar Network.dyn_peer[343] 	lookupTimeSig:mean 	2.15
scalar Network.dyn_peer[343] 	lookupStabilitySig:mean 	0.96594741182505
scalar Network.dyn_peer[343] 	lookupHopsSig:mean 	20.555555555556
scalar Network.dyn_peer[344] 	lookupTimeSig:mean 	2.1636363636364
scalar Network.dyn_peer[344] 	lookupStabilitySig:mean 	0.97100687938192
scalar Network.dyn_peer[344] 	lookupHopsSig:mean 	20.727272727273
scalar Network.dyn_peer[345] 	lookupTimeSig:mean 	3.03125
scalar Network.dyn_peer[345] 	lookupStabilitySig:mean 	0.96408554975642
scalar Network.dyn_peer[345] 	lookupHopsSig:mean 	29.375
scalar Network.dyn_peer[346] 	lookupTimeSig:mean 	2.9666666666667
scalar Network.dyn_peer[346] 	lookupStabilitySig:mean 	0.95268588427765
scalar Network.dyn_peer[346] 	lookupHopsSig:mean 	28.75
scalar Network.dyn_peer[347] 	lookupTimeSig:mean 	2.6259259259259
scalar Network.dyn_peer[347] 	lookupStabilitySig:mean 	0.97594903655678
scalar Network.dyn_peer[347] 	lookupHopsSig:mean 	25.296296296296
scalar Network.dyn_peer[348] 	lookupTimeSig:mean 	3.5166666666667
scalar Network.dyn_peer[348] 	lookupStabilitySig:mean 	0.95442607595275
scalar Network.dyn_peer[348] 	lookupHopsSig:mean 	34.25
scalar Network.dyn_peer[349] 	lookupTimeSig:mean 	2.4909090909091
scalar Network.dyn_peer[349] 	lookupStabilitySig:mean 	0.96368934745392
scalar Network.dyn_peer[349] 	lookupHopsSig:mean 	24
scalar Network.dyn_peer[350] 	lookupTimeSig:mean 	2.7777777777778
scalar Network.dyn_peer[350] 	lookupStabilitySig:mean 	0.96434023831454
scalar Network.dyn_peer[350] 	lookupHopsSig:mean 	26.888888888889
scalar Network.dyn_peer[351] 	lookupTimeSig:mean 	1.8538461538462
scalar Network.dyn_peer[351] 	lookupStabilitySig:mean 	0.96282249728504
scalar Network.dyn_peer[351] 	lookupHopsSig:mean 	17.615384615385
scalar Network.dyn_peer[352] 	lookupTimeSig:mean 	2.3818181818182
scalar Network.dyn_peer[352] 	lookupStabilitySig:mean 	0.95860201196576
scalar Network.dyn_peer[352] 	lookupHopsSig:mean 	22.909090909091
scalar Network.dyn_peer[353] 	lookupTimeSig:mean 	2.0181818181818
scalar Network.dyn_peer[353] 	lookupStabilitySig:mean 	0.96790277661586
scalar Network.dyn_peer[353] 	lookupHopsSig:mean 	19.272727272727
scalar Network.dyn_peer[354] 	lookupTimeSig:mean 	2.85
scalar Network.dyn_peer[354] 	lookupStabilitySig:mean 	0.97843933313225
scalar Network.dyn_peer[354] 	lookupHopsSig:mean 	27.538461538462
scalar Network.dyn_peer[355] 	lookupTimeSig:mean 	3.0466666666667
scalar Network.dyn_peer[355] 	lookupStabilitySig:mean 	0.96599406295766
scalar Network.dyn_peer[355] 	lookupHopsSig:mean 	29.533333333333
scalar Network.dyn_peer[356] 	lookupTimeSig:mean 	1.7583333333333
scalar Network.dyn_peer[356] 	lookupStabilitySig:mean 	0.96172746977148
scalar Network.dyn_peer[356] 	lookupHopsSig:mean 	16.666666666667
scalar Network.dyn_peer[357] 	lookupTimeSig:mean 	2.12
scalar Network.dyn_peer[357] 	lookupStabilitySig:mean 	0.96576243131422
scalar Network.dyn_peer[357] 	lookupHopsSig:mean 	20.3
scalar Network.dyn_peer[358] 	lookupTimeSig:mean 	3.3157894736842
scalar Network.dyn_peer[358] 	lookupStabilitySig:mean 	0.9756861038408
scalar Network.dyn_peer[358] 	lookupHopsSig:mean 	32.210526315789
scalar Network.dyn_peer[359] 	lookupTimeSig:mean 	3
scalar Network.dyn_peer[359] 	lookupStabilitySig:mean 	0.95817358241501
scalar Network.dyn_peer[359] 	lookupHopsSig:mean 	29.090909090909
scalar Network.dyn_peer[360] 	lookupTimeSig:mean 	3.16875
scalar Network.dyn_peer[360] 	lookupStabilitySig:mean 	0.95907030411763
scalar Network.dyn_peer[360] 	lookupHopsSig:mean 	30.75
scalar Network.dyn_peer[361] 	lookupTimeSig:mean 	2.545
scalar Network.dyn_peer[361] 	lookupStabilitySig:mean 	0.97016852591187
scalar Network.dyn_peer[361] 	lookupHopsSig:mean 	24.5
scalar Network.dyn_peer[362] 	lookupTimeSig:mean 	2.25625
scalar Network.dyn_peer[362] 	lookupStabilitySig:mean 	0.96270658008871
scalar Network.dyn_peer[362] 	lookupHopsSig:mean 	21.625
scalar Network.dyn_peer[363] 	lookupTimeSig:mean 	1.7181818181818
scalar Network.dyn_peer[363] 	lookupStabilitySig:mean 	0.96271245291626
scalar Network.dyn_peer[363] 	lookupHopsSig:mean 	16.272727272727
scalar Network.dyn_peer[364] 	lookupTimeSig:mean 	2.4055555555556
scalar Network.dyn_peer[364] 	lookupStabilitySig:mean 	0.97517319903192
scalar Network.dyn_peer[364] 	lookupHopsSig:mean 	23.111111111111
scalar Network.dyn_peer[365] 	lookupTimeSig:mean 	2.25
scalar Network.dyn_peer[365] 	lookupStabilitySig:mean 	0.9752524998039
scalar Network.dyn_peer[365] 	lookupHopsSig:mean 	21.6
scalar Network.dyn_peer[366] 	lookupTimeSig:mean 	2.4545454545455
scalar Network.dyn_peer[366] 	lookupStabilitySig:mean 	0.96610176834193
scalar Network.dyn_peer[366] 	lookupHopsSig:mean 	23.636363636364
scalar Network.dyn_peer[367] 	lookupTimeSig:mean 	1.22
scalar Network.dyn_peer[367] 	lookupStabilitySig:mean 	0.97270342367701
scalar Network.dyn_peer[367] 	lookupHopsSig:mean 	11.4
scalar Network.dyn_peer[368] 	lookupTimeSig:mean 	2.77
scalar Network.dyn_peer[368] 	lookupStabilitySig:mean 	0.96447856649756
scalar Network.dyn_peer[368] 	lookupHopsSig:mean 	26.8
scalar Network.dyn_peer[369] 	lookupTimeSig:mean 	1.1285714285714
scalar Network.dyn_peer[369] 	lookupStabilitySig:mean 	0.95380109548569
scalar Network.dyn_peer[369] 	lookupHopsSig:mean 	10.428571428571
scalar Network.dyn_peer[370] 	lookupTimeSig:mean 	2.5058823529412
scalar Network.dyn_peer[370] 	lookupStabilitySig:mean 	0.97080073782298
scalar Network.dyn_peer[370] 	lookupHopsSig:mean 	24.117647058824
scalar Network.dyn_peer[371] 	lookupTimeSig:mean 	2.1615384615385
scalar Network.dyn_peer[371] 	lookupStabilitySig:mean 	0.96253216979452
scalar Network.dyn_peer[371] 	lookupHopsSig:mean 	20.692307692308
scalar Network.dyn_peer[372] 	lookupTimeSig:mean 	2.7727272727273
scalar Network.dyn_peer[372] 	lookupStabilitySig:mean 	0.97340490122918
scalar Network.dyn_peer[372] 	lookupHopsSig:mean 	26.772727272727
scalar Network.dyn_peer[373] 	lookupTimeSig:mean 	2.1352941176471
scalar Network.dyn_peer[373] 	lookupStabilitySig:mean 	0.97079872830278
scalar Network.dyn_peer[373] 	lookupHopsSig:mean 	20.411764705882
scalar Network.dyn_peer[374] 	lookupTimeSig:mean 	2.796
scalar Network.dyn_peer[374] 	lookupStabilitySig:mean 	0.97699424042366
scalar Network.dyn_peer[374] 	lookupHopsSig:mean 	27
scalar Network.dyn_peer[375] 	lookupTimeSig:mean 	3.5888888888889
scalar Network.dyn_peer[375] 	lookupStabilitySig:mean 	0.94551246856443
scalar Network.dyn_peer[375] 	lookupHopsSig:mean 	35
scalar Network.dyn_peer[376] 	lookupTimeSig:mean 	2.5545454545455
scalar Network.dyn_peer[376] 	lookupStabilitySig:mean 	0.96388541297479
scalar Network.dyn_peer[376] 	lookupHopsSig:mean 	24.636363636364
scalar Network.dyn_peer[377] 	lookupTimeSig:mean 	2.2
scalar Network.dyn_peer[377] 	lookupStabilitySig:mean 	0.94829984335229
scalar Network.dyn_peer[377] 	lookupHopsSig:mean 	21.125
scalar Network.dyn_peer[378] 	lookupTimeSig:mean 	2.63
scalar Network.dyn_peer[378] 	lookupStabilitySig:mean 	0.96052677228581
scalar Network.dyn_peer[378] 	lookupHopsSig:mean 	25.4
scalar Network.dyn_peer[379] 	lookupTimeSig:mean 	1.9263157894737
scalar Network.dyn_peer[379] 	lookupStabilitySig:mean 	0.97185679050898
scalar Network.dyn_peer[379] 	lookupHopsSig:mean 	18.315789473684
scalar Network.dyn_peer[380] 	lookupTimeSig:mean 	3.0571428571429
scalar Network.dyn_peer[380] 	lookupStabilitySig:mean 	0.96656882500143
scalar Network.dyn_peer[380] 	lookupHopsSig:mean 	29.642857142857
scalar Network.dyn_peer[381] 	lookupTimeSig:mean 	2.1555555555556
scalar Network.dyn_peer[381] 	lookupStabilitySig:mean 	0.97047574443018
scalar Network.dyn_peer[381] 	lookupHopsSig:mean 	20.611111111111
scalar Network.dyn_peer[382] 	lookupTimeSig:mean 	2.64
scalar Network.dyn_peer[382] 	lookupStabilitySig:mean 	0.9589048627764
scalar Network.dyn_peer[382] 	lookupHopsSig:mean 	25.6
scalar Network.dyn_peer[383] 	lookupTimeSig:mean 	3.1285714285714
scalar Network.dyn_peer[383] 	lookupStabilitySig:mean 	0.96288357964451
scalar Network.dyn_peer[383] 	lookupHopsSig:mean 	30.357142857143
scalar Network.dyn_peer[384] 	lookupTimeSig:mean 	1.8941176470588
scalar Network.dyn_peer[384] 	lookupStabilitySig:mean 	0.97397003898068
scalar Network.dyn_peer[384] 	lookupHopsSig:mean 	18
scalar Network.dyn_peer[385] 	lookupTimeSig:mean 	2.6263157894737
scalar Network.dyn_peer[385] 	lookupStabilitySig:mean 	0.97233312545148
scalar Network.dyn_peer[385] 	lookupHopsSig:mean 	25.315789473684
scalar Network.dyn_peer[386] 	lookupTimeSig:mean 	3.2666666666667
scalar Network.dyn_peer[386] 	lookupStabilitySig:mean 	0.96603229784717
scalar Network.dyn_peer[386] 	lookupHopsSig:mean 	31.733333333333
scalar Network.dyn_peer[387] 	lookupTimeSig:mean 	2.85
scalar Network.dyn_peer[387] 	lookupStabilitySig:mean 	0.92647637054324
scalar Network.dyn_peer[387] 	lookupHopsSig:mean 	27.666666666667
scalar Network.dyn_peer[388] 	lookupTimeSig:mean 	2.6285714285714
scalar Network.dyn_peer[388] 	lookupStabilitySig:mean 	0.95716201800055
scalar Network.dyn_peer[388] 	lookupHopsSig:mean 	25.428571428571
scalar Network.dyn_peer[389] 	lookupTimeSig:mean 	2.88
scalar Network.dyn_peer[389] 	lookupStabilitySig:mean 	0.95680440003052
scalar Network.dyn_peer[389] 	lookupHopsSig:mean 	27.9
scalar Network.dyn_peer[390] 	lookupTimeSig:mean 	2.7133333333333
scalar Network.dyn_peer[390] 	lookupStabilitySig:mean 	0.9745844963938
scalar Network.dyn_peer[390] 	lookupHopsSig:mean 	26.2
scalar Network.dyn_peer[391] 	lookupTimeSig:mean 	2.5285714285714
scalar Network.dyn_peer[391] 	lookupStabilitySig:mean 	0.97586604061403
scalar Network.dyn_peer[391] 	lookupHopsSig:mean 	24.357142857143
scalar Network.dyn_peer[392] 	lookupTimeSig:mean 	3.0384615384615
scalar Network.dyn_peer[392] 	lookupStabilitySig:mean 	0.96580241667107
scalar Network.dyn_peer[392] 	lookupHopsSig:mean 	29.461538461538
scalar Network.dyn_peer[393] 	lookupTimeSig:mean 	2.0416666666667
scalar Network.dyn_peer[393] 	lookupStabilitySig:mean 	0.97365034208633
scalar Network.dyn_peer[393] 	lookupHopsSig:mean 	19.5
scalar Network.dyn_peer[394] 	lookupTimeSig:mean 	2.7875
scalar Network.dyn_peer[394] 	lookupStabilitySig:mean 	0.97368162100126
scalar Network.dyn_peer[394] 	lookupHopsSig:mean 	26.916666666667
scalar Network.dyn_peer[395] 	lookupTimeSig:mean 	2.7357142857143
scalar Network.dyn_peer[395] 	lookupStabilitySig:mean 	0.96259097655171
scalar Network.dyn_peer[395] 	lookupHopsSig:mean 	26.428571428571
scalar Network.dyn_peer[396] 	lookupTimeSig:mean 	2.83
scalar Network.dyn_peer[396] 	lookupStabilitySig:mean 	0.96097813127562
scalar Network.dyn_peer[396] 	lookupHopsSig:mean 	27.4
scalar Network.dyn_peer[397] 	lookupTimeSig:mean 	2.8071428571429
scalar Network.dyn_peer[397] 	lookupStabilitySig:mean 	0.96535163735306
scalar Network.dyn_peer[397] 	lookupHopsSig:mean 	27.142857142857
scalar Network.dyn_peer[398] 	lookupTimeSig:mean 	3.01875
scalar Network.dyn_peer[398] 	lookupStabilitySig:mean 	0.97350458157598
scalar Network.dyn_peer[398] 	lookupHopsSig:mean 	29.25
scalar Network.dyn_peer[399] 	lookupTimeSig:mean 	2.6210526315789
scalar Network.dyn_peer[399] 	lookupStabilitySig:mean 	0.97697706641874
scalar Network.dyn_peer[399] 	lookupHopsSig:mean 	25.263157894737
scalar Network.dyn_peer[400] 	lookupTimeSig:mean 	0.975
scalar Network.dyn_peer[400] 	lookupStabilitySig:mean 	0.94378577172756
scalar Network.dyn_peer[400] 	lookupHopsSig:mean 	9
scalar Network.dyn_peer[401] 	lookupTimeSig:mean 	2.9047619047619
scalar Network.dyn_peer[401] 	lookupStabilitySig:mean 	0.97115611966832
scalar Network.dyn_peer[401] 	lookupHopsSig:mean 	28.095238095238
scalar Network.dyn_peer[402] 	lookupTimeSig:mean 	2.3923076923077
scalar Network.dyn_peer[402] 	lookupStabilitySig:mean 	0.96182924710089
scalar Network.dyn_peer[402] 	lookupHopsSig:mean 	23
scalar Network.dyn_peer[403] 	lookupTimeSig:mean 	2.4916666666667
scalar Network.dyn_peer[403] 	lookupStabilitySig:mean 	0.96806465392001
scalar Network.dyn_peer[403] 	lookupHopsSig:mean 	24
scalar Network.dyn_peer[404] 	lookupTimeSig:mean 	3.2375
scalar Network.dyn_peer[404] 	lookupStabilitySig:mean 	0.94180162413977
scalar Network.dyn_peer[404] 	lookupHopsSig:mean 	31.5
scalar Network.dyn_peer[405] 	lookupTimeSig:mean 	1.8166666666667
scalar Network.dyn_peer[405] 	lookupStabilitySig:mean 	0.9804873841349
scalar Network.dyn_peer[405] 	lookupHopsSig:mean 	17.333333333333
scalar Network.dyn_peer[406] 	lookupTimeSig:mean 	2.7125
scalar Network.dyn_peer[406] 	lookupStabilitySig:mean 	0.96771551345591
[...]
scalar Network.dyn_peer[9885] 	lookupTimeSig:mean 	-nan
scalar Network.dyn_peer[9885] 	lookupStabilitySig:mean 	-nan
scalar Network.dyn_peer[9885] 	lookupHopsSig:mean 	-nan
scalar Network.dyn_peer[9886] 	lookupTimeSig:mean 	-nan
scalar Network.dyn_peer[9886] 	lookupStabilitySig:mean 	-nan
scalar Network.dyn_peer[9886] 	lookupHopsSig:mean 	-nan
scalar Network.dyn_peer[9887] 	lookupTimeSig:mean 	-nan
scalar Network.dyn_peer[9887] 	lookupStabilitySig:mean 	-nan
scalar Network.dyn_peer[9887] 	lookupHopsSig:mean 	-nan
scalar Network.dyn_peer[9888] 	lookupTimeSig:mean 	-nan
scalar Network.dyn_peer[9888] 	lookupStabilitySig:mean 	-nan
scalar Network.dyn_peer[9888] 	lookupHopsSig:mean 	-nan
scalar Network.dyn_peer[9889] 	lookupTimeSig:mean 	-nan
scalar Network.dyn_peer[9889] 	lookupStabilitySig:mean 	-nan
scalar Network.dyn_peer[9889] 	lookupHopsSig:mean 	-nan
scalar Network.dyn_peer[9890] 	lookupTimeSig:mean 	-nan
scalar Network.dyn_peer[9890] 	lookupStabilitySig:mean 	-nan
scalar Network.dyn_peer[9890] 	lookupHopsSig:mean 	-nan
scalar Network.dyn_peer[9891] 	lookupTimeSig:mean 	-nan
scalar Network.dyn_peer[9891] 	lookupStabilitySig:mean 	-nan
scalar Network.dyn_peer[9891] 	lookupHopsSig:mean 	-nan
scalar Network.dyn_peer[9892] 	lookupTimeSig:mean 	-nan
scalar Network.dyn_peer[9892] 	lookupStabilitySig:mean 	-nan
scalar Network.dyn_peer[9892] 	lookupHopsSig:mean 	-nan
scalar Network.dyn_peer[9893] 	lookupTimeSig:mean 	-nan
scalar Network.dyn_peer[9893] 	lookupStabilitySig:mean 	-nan
scalar Network.dyn_peer[9893] 	lookupHopsSig:mean 	-nan
scalar Network.dyn_peer[9894] 	lookupTimeSig:mean 	-nan
scalar Network.dyn_peer[9894] 	lookupStabilitySig:mean 	-nan
scalar Network.dyn_peer[9894] 	lookupHopsSig:mean 	-nan
scalar Network.dyn_peer[9895] 	lookupTimeSig:mean 	-nan
scalar Network.dyn_peer[9895] 	lookupStabilitySig:mean 	-nan
scalar Network.dyn_peer[9895] 	lookupHopsSig:mean 	-nan
scalar Network.dyn_peer[9896] 	lookupTimeSig:mean 	-nan
scalar Network.dyn_peer[9896] 	lookupStabilitySig:mean 	-nan
scalar Network.dyn_peer[9896] 	lookupHopsSig:mean 	-nan
scalar Network.dyn_peer[9897] 	lookupTimeSig:mean 	-nan
scalar Network.dyn_peer[9897] 	lookupStabilitySig:mean 	-nan
scalar Network.dyn_peer[9897] 	lookupHopsSig:mean 	-nan
scalar Network.dyn_peer[9898] 	lookupTimeSig:mean 	-nan
scalar Network.dyn_peer[9898] 	lookupStabilitySig:mean 	-nan
scalar Network.dyn_peer[9898] 	lookupHopsSig:mean 	-nan
scalar Network.dyn_peer[9899] 	lookupTimeSig:mean 	-nan
scalar Network.dyn_peer[9899] 	lookupStabilitySig:mean 	-nan
scalar Network.dyn_peer[9899] 	lookupHopsSig:mean 	-nan
scalar Network.dyn_peer[9900] 	lookupTimeSig:mean 	-nan
scalar Network.dyn_peer[9900] 	lookupStabilitySig:mean 	-nan
scalar Network.dyn_peer[9900] 	lookupHopsSig:mean 	-nan
scalar Network.dyn_peer[9901] 	lookupTimeSig:mean 	-nan
scalar Network.dyn_peer[9901] 	lookupStabilitySig:mean 	-nan
scalar Network.dyn_peer[9901] 	lookupHopsSig:mean 	-nan
scalar Network.dyn_peer[9902] 	lookupTimeSig:mean 	-nan
scalar Network.dyn_peer[9902] 	lookupStabilitySig:mean 	-nan
scalar Network.dyn_peer[9902] 	lookupHopsSig:mean 	-nan
scalar Network.dyn_peer[9903] 	lookupTimeSig:mean 	-nan
scalar Network.dyn_peer[9903] 	lookupStabilitySig:mean 	-nan
scalar Network.dyn_peer[9903] 	lookupHopsSig:mean 	-nan
scalar Network.dyn_peer[9904] 	lookupTimeSig:mean 	-nan
scalar Network.dyn_peer[9904] 	lookupStabilitySig:mean 	-nan
scalar Network.dyn_peer[9904] 	lookupHopsSig:mean 	-nan
scalar Network.dyn_peer[9905] 	lookupTimeSig:mean 	-nan
scalar Network.dyn_peer[9905] 	lookupStabilitySig:mean 	-nan
scalar Network.dyn_peer[9905] 	lookupHopsSig:mean 	-nan
scalar Network.dyn_peer[9906] 	lookupTimeSig:mean 	-nan
scalar Network.dyn_peer[9906] 	lookupStabilitySig:mean 	-nan
scalar Network.dyn_peer[9906] 	lookupHopsSig:mean 	-nan
scalar Network.dyn_peer[9907] 	lookupTimeSig:mean 	-nan
scalar Network.dyn_peer[9907] 	lookupStabilitySig:mean 	-nan
scalar Network.dyn_peer[9907] 	lookupHopsSig:mean 	-nan
scalar Network.dyn_peer[9908] 	lookupTimeSig:mean 	-nan
scalar Network.dyn_peer[9908] 	lookupStabilitySig:mean 	-nan
scalar Network.dyn_peer[9908] 	lookupHopsSig:mean 	-nan
scalar Network.dyn_peer[9909] 	lookupTimeSig:mean 	-nan
scalar Network.dyn_peer[9909] 	lookupStabilitySig:mean 	-nan
scalar Network.dyn_peer[9909] 	lookupHopsSig:mean 	-nan
scalar Network.dyn_peer[9910] 	lookupTimeSig:mean 	-nan
scalar Network.dyn_peer[9910] 	lookupStabilitySig:mean 	-nan
scalar Network.dyn_peer[9910] 	lookupHopsSig:mean 	-nan
scalar Network.dyn_peer[9911] 	lookupTimeSig:mean 	-nan
scalar Network.dyn_peer[9911] 	lookupStabilitySig:mean 	-nan
scalar Network.dyn_peer[9911] 	lookupHopsSig:mean 	-nan
scalar Network.dyn_peer[9912] 	lookupTimeSig:mean 	-nan
scalar Network.dyn_peer[9912] 	lookupStabilitySig:mean 	-nan
scalar Network.dyn_peer[9912] 	lookupHopsSig:mean 	-nan
scalar Network.dyn_peer[9913] 	lookupTimeSig:mean 	-nan
scalar Network.dyn_peer[9913] 	lookupStabilitySig:mean 	-nan
scalar Network.dyn_peer[9913] 	lookupHopsSig:mean 	-nan
scalar Network.dyn_peer[9914] 	lookupTimeSig:mean 	-nan
scalar Network.dyn_peer[9914] 	lookupStabilitySig:mean 	-nan
scalar Network.dyn_peer[9914] 	lookupHopsSig:mean 	-nan
scalar Network.dyn_peer[9915] 	lookupTimeSig:mean 	-nan
scalar Network.dyn_peer[9915] 	lookupStabilitySig:mean 	-nan
scalar Network.dyn_peer[9915] 	lookupHopsSig:mean 	-nan
scalar Network.dyn_peer[9916] 	lookupTimeSig:mean 	-nan
scalar Network.dyn_peer[9916] 	lookupStabilitySig:mean 	-nan
scalar Network.dyn_peer[9916] 	lookupHopsSig:mean 	-nan
scalar Network.dyn_peer[9917] 	lookupTimeSig:mean 	-nan
scalar Network.dyn_peer[9917] 	lookupStabilitySig:mean 	-nan
scalar Network.dyn_peer[9917] 	lookupHopsSig:mean 	-nan
scalar Network.dyn_peer[9918] 	lookupTimeSig:mean 	-nan
scalar Network.dyn_peer[9918] 	lookupStabilitySig:mean 	-nan
scalar Network.dyn_peer[9918] 	lookupHopsSig:mean 	-nan
scalar Network.dyn_peer[9919] 	lookupTimeSig:mean 	-nan
scalar Network.dyn_peer[9919] 	lookupStabilitySig:mean 	-nan
scalar Network.dyn_peer[9919] 	lookupHopsSig:mean 	-nan
scalar Network.dyn_peer[9920] 	lookupTimeSig:mean 	-nan
scalar Network.dyn_peer[9920] 	lookupStabilitySig:mean 	-nan
scalar Network.dyn_peer[9920] 	lookupHopsSig:mean 	-nan
scalar Network.dyn_peer[9921] 	lookupTimeSig:mean 	-nan
scalar Network.dyn_peer[9921] 	lookupStabilitySig:mean 	-nan
scalar Network.dyn_peer[9921] 	lookupHopsSig:mean 	-nan
scalar Network.dyn_peer[9922] 	lookupTimeSig:mean 	-nan
scalar Network.dyn_peer[9922] 	lookupStabilitySig:mean 	-nan
scalar Network.dyn_peer[9922] 	lookupHopsSig:mean 	-nan
scalar Network.dyn_peer[9923] 	lookupTimeSig:mean 	-nan
scalar Network.dyn_peer[9923] 	lookupStabilitySig:mean 	-nan
scalar Network.dyn_peer[9923] 	lookupHopsSig:mean 	-nan
scalar Network.dyn_peer[9924] 	lookupTimeSig:mean 	-nan
scalar Network.dyn_peer[9924] 	lookupStabilitySig:mean 	-nan
scalar Network.dyn_peer[9924] 	lookupHopsSig:mean 	-nan
scalar Network.dyn_peer[9925] 	lookupTimeSig:mean 	-nan
scalar Network.dyn_peer[9925] 	lookupStabilitySig:mean 	-nan
scalar Network.dyn_peer[9925] 	lookupHopsSig:mean 	-nan
scalar Network.dyn_peer[9926] 	lookupTimeSig:mean 	-nan
scalar Network.dyn_peer[9926] 	lookupStabilitySig:mean 	-nan
scalar Network.dyn_peer[9926] 	lookupHopsSig:mean 	-nan
scalar Network.dyn_peer[9927] 	lookupTimeSig:mean 	-nan
scalar Network.dyn_peer[9927] 	lookupStabilitySig:mean 	-nan
scalar Network.dyn_peer[9927] 	lookupHopsSig:mean 	-nan
scalar Network.dyn_peer[9928] 	lookupTimeSig:mean 	-nan
scalar Network.dyn_peer[9928] 	lookupStabilitySig:mean 	-nan
scalar Network.dyn_peer[9928] 	lookupHopsSig:mean 	-nan
scalar Network.dyn_peer[9929] 	lookupTimeSig:mean 	-nan
scalar Network.dyn_peer[9929] 	lookupStabilitySig:mean 	-nan
scalar Network.dyn_peer[9929] 	lookupHopsSig:mean 	-nan
scalar Network.dyn_peer[9930] 	lookupTimeSig:mean 	-nan
scalar Network.dyn_peer[9930] 	lookupStabilitySig:mean 	-nan
scalar Network.dyn_peer[9930] 	lookupHopsSig:mean 	-nan
scalar Network.dyn_peer[9931] 	lookupTimeSig:mean 	-nan
scalar Network.dyn_peer[9931] 	lookupStabilitySig:mean 	-nan
scalar Network.dyn_peer[9931] 	lookupHopsSig:mean 	-nan
scalar Network.dyn_peer[9932] 	lookupTimeSig:mean 	-nan
scalar Network.dyn_peer[9932] 	lookupStabilitySig:mean 	-nan
scalar Network.dyn_peer[9932] 	lookupHopsSig:mean 	-nan
scalar Network.dyn_peer[9933] 	lookupTimeSig:mean 	-nan
scalar Network.dyn_peer[9933] 	lookupStabilitySig:mean 	-nan
scalar Network.dyn_peer[9933] 	lookupHopsSig:mean 	-nan
scalar Network.dyn_peer[9934] 	lookupTimeSig:mean 	-nan
scalar Network.dyn_peer[9934] 	lookupStabilitySig:mean 	-nan
scalar Network.dyn_peer[9934] 	lookupHopsSig:mean 	-nan
scalar Network.dyn_peer[9935] 	lookupTimeSig:mean 	-nan
scalar Network.dyn_peer[9935] 	lookupStabilitySig:mean 	-nan
scalar Network.dyn_peer[9935] 	lookupHopsSig:mean 	-nan
scalar Network.dyn_peer[9936] 	lookupTimeSig:mean 	-nan
scalar Network.dyn_peer[9936] 	lookupStabilitySig:mean 	-nan
scalar Network.dyn_peer[9936] 	lookupHopsSig:mean 	-nan
scalar Network.dyn_peer[9937] 	lookupTimeSig:mean 	-nan
scalar Network.dyn_peer[9937] 	lookupStabilitySig:mean 	-nan
scalar Network.dyn_peer[9937] 	lookupHopsSig:mean 	-nan
scalar Network.dyn_peer[9938] 	lookupTimeSig:mean 	-nan
scalar Network.dyn_peer[9938] 	lookupStabilitySig:mean 	-nan
scalar Network.dyn_peer[9938] 	lookupHopsSig:mean 	-nan
scalar Network.dyn_peer[9939] 	lookupTimeSig:mean 	-nan
scalar Network.dyn_peer[9939] 	lookupStabilitySig:mean 	-nan
scalar Network.dyn_peer[9939] 	lookupHopsSig:mean 	-nan
scalar Network.dyn_peer[9940] 	lookupTimeSig:mean 	-nan
scalar Network.dyn_peer[9940] 	lookupStabilitySig:mean 	-nan
scalar Network.dyn_peer[9940] 	lookupHopsSig:mean 	-nan
scalar Network.dyn_peer[9941] 	lookupTimeSig:mean 	-nan
scalar Network.dyn_peer[9941] 	lookupStabilitySig:mean 	-nan
scalar Network.dyn_peer[9941] 	lookupHopsSig:mean 	-nan
scalar Network.dyn_peer[9942] 	lookupTimeSig:mean 	-nan
scalar Network.dyn_peer[9942] 	lookupStabilitySig:mean 	-nan
scalar Network.dyn_peer[9942] 	lookupHopsSig:mean 	-nan
scalar Network.dyn_peer[9943] 	lookupTimeSig:mean 	-nan
scalar Network.dyn_peer[9943] 	lookupStabilitySig:mean 	-nan
scalar Network.dyn_peer[9943] 	lookupHopsSig:mean 	-nan
scalar Network.dyn_peer[9944] 	lookupTimeSig:mean 	-nan
scalar Network.dyn_peer[9944] 	lookupStabilitySig:mean 	-nan
scalar Network.dyn_peer[9944] 	lookupHopsSig:mean 	-nan
scalar Network.dyn_peer[9945] 	lookupTimeSig:mean 	-nan
scalar Network.dyn_peer[9945] 	lookupStabilitySig:mean 	-nan
scalar Network.dyn_peer[9945] 	lookupHopsSig:mean 	-nan
scalar Network.dyn_peer[9946] 	lookupTimeSig:mean 	-nan
scalar Network.dyn_peer[9946] 	lookupStabilitySig:mean 	-nan
scalar Network.dyn_peer[9946] 	lookupHopsSig:mean 	-nan
scalar Network.dyn_peer[9947] 	lookupTimeSig:mean 	-nan
scalar Network.dyn_peer[9947] 	lookupStabilitySig:mean 	-nan
scalar Network.dyn_peer[9947] 	lookupHopsSig:mean 	-nan
scalar Network.dyn_peer[9948] 	lookupTimeSig:mean 	-nan
scalar Network.dyn_peer[9948] 	lookupStabilitySig:mean 	-nan
scalar Network.dyn_peer[9948] 	lookupHopsSig:mean 	-nan
scalar Network.dyn_peer[9949] 	lookupTimeSig:mean 	-nan
scalar Network.dyn_peer[9949] 	lookupStabilitySig:mean 	-nan
scalar Network.dyn_peer[9949] 	lookupHopsSig:mean 	-nan
scalar Network.dyn_peer[9950] 	lookupTimeSig:mean 	-nan
scalar Network.dyn_peer[9950] 	lookupStabilitySig:mean 	-nan
scalar Network.dyn_peer[9950] 	lookupHopsSig:mean 	-nan
scalar Network.dyn_peer[9951] 	lookupTimeSig:mean 	-nan
scalar Network.dyn_peer[9951] 	lookupStabilitySig:mean 	-nan
scalar Network.dyn_peer[9951] 	lookupHopsSig:mean 	-nan
scalar Network.dyn_peer[9952] 	lookupTimeSig:mean 	-nan
scalar Network.dyn_peer[9952] 	lookupStabilitySig:mean 	-nan
scalar Network.dyn_peer[9952] 	lookupHopsSig:mean 	-nan
scalar Network.dyn_peer[9953] 	lookupTimeSig:mean 	-nan
scalar Network.dyn_peer[9953] 	lookupStabilitySig:mean 	-nan
scalar Network.dyn_peer[9953] 	lookupHopsSig:mean 	-nan
scalar Network.dyn_peer[9954] 	lookupTimeSig:mean 	-nan
scalar Network.dyn_peer[9954] 	lookupStabilitySig:mean 	-nan
scalar Network.dyn_peer[9954] 	lookupHopsSig:mean 	-nan
scalar Network.dyn_peer[9955] 	lookupTimeSig:mean 	-nan
scalar Network.dyn_peer[9955] 	lookupStabilitySig:mean 	-nan
scalar Network.dyn_peer[9955] 	lookupHopsSig:mean 	-nan
scalar Network.dyn_peer[9956] 	lookupTimeSig:mean 	-nan
scalar Network.dyn_peer[9956] 	lookupStabilitySig:mean 	-nan
scalar Network.dyn_peer[9956] 	lookupHopsSig:mean 	-nan
scalar Network.dyn_peer[9957] 	lookupTimeSig:mean 	-nan
scalar Network.dyn_peer[9957] 	lookupStabilitySig:mean 	-nan
scalar Network.dyn_peer[9957] 	lookupHopsSig:mean 	-nan
scalar Network.dyn_peer[9958] 	lookupTimeSig:mean 	-nan
scalar Network.dyn_peer[9958] 	lookupStabilitySig:mean 	-nan
scalar Network.dyn_peer[9958] 	lookupHopsSig:mean 	-nan
scalar Network.dyn_peer[9959] 	lookupTimeSig:mean 	-nan
scalar Network.dyn_peer[9959] 	lookupStabilitySig:mean 	-nan
scalar Network.dyn_peer[9959] 	lookupHopsSig:mean 	-nan
scalar Network.dyn_peer[9960] 	lookupTimeSig:mean 	-nan
scalar Network.dyn_peer[9960] 	lookupStabilitySig:mean 	-nan
scalar Network.dyn_peer[9960] 	lookupHopsSig:mean 	-nan
scalar Network.dyn_peer[9961] 	lookupTimeSig:mean 	-nan
scalar Network.dyn_peer[9961] 	lookupStabilitySig:mean 	-nan
scalar Network.dyn_peer[9961] 	lookupHopsSig:mean 	-nan
scalar Network.dyn_peer[9962] 	lookupTimeSig:mean 	-nan
scalar Network.dyn_peer[9962] 	lookupStabilitySig:mean 	-nan
scalar Network.dyn_peer[9962] 	lookupHopsSig:mean 	-nan
scalar Network.dyn_peer[9963] 	lookupTimeSig:mean 	-nan
scalar Network.dyn_peer[9963] 	lookupStabilitySig:mean 	-nan
scalar Network.dyn_peer[9963] 	lookupHopsSig:mean 	-nan
scalar Network.dyn_peer[9964] 	lookupTimeSig:mean 	-nan
scalar Network.dyn_peer[9964] 	lookupStabilitySig:mean 	-nan
scalar Network.dyn_peer[9964] 	lookupHopsSig:mean 	-nan
scalar Network.dyn_peer[9965] 	lookupTimeSig:mean 	-nan
scalar Network.dyn_peer[9965] 	lookupStabilitySig:mean 	-nan
scalar Network.dyn_peer[9965] 	lookupHopsSig:mean 	-nan
scalar Network.dyn_peer[9966] 	lookupTimeSig:mean 	-nan
scalar Network.dyn_peer[9966] 	lookupStabilitySig:mean 	-nan
scalar Network.dyn_peer[9966] 	lookupHopsSig:mean 	-nan
scalar Network.dyn_peer[9967] 	lookupTimeSig:mean 	-nan
scalar Network.dyn_peer[9967] 	lookupStabilitySig:mean 	-nan
scalar Network.dyn_peer[9967] 	lookupHopsSig:mean 	-nan
scalar Network.dyn_peer[9968] 	lookupTimeSig:mean 	-nan
scalar Network.dyn_peer[9968] 	lookupStabilitySig:mean 	-nan
scalar Network.dyn_peer[9968] 	lookupHopsSig:mean 	-nan
scalar Network.dyn_peer[9969] 	lookupTimeSig:mean 	-nan
scalar Network.dyn_peer[9969] 	lookupStabilitySig:mean 	-nan
scalar Network.dyn_peer[9969] 	lookupHopsSig:mean 	-nan
scalar Network.dyn_peer[9970] 	lookupTimeSig:mean 	-nan
scalar Network.dyn_peer[9970] 	lookupStabilitySig:mean 	-nan
scalar Network.dyn_peer[9970] 	lookupHopsSig:mean 	-nan
scalar Network.dyn_peer[9971] 	lookupTimeSig:mean 	-nan
scalar Network.dyn_peer[9971] 	lookupStabilitySig:mean 	-nan
scalar Network.dyn_peer[9971] 	lookupHopsSig:mean 	-nan
scalar Network.dyn_peer[9972] 	lookupTimeSig:mean 	-nan
scalar Network.dyn_peer[9972] 	lookupStabilitySig:mean 	-nan
scalar Network.dyn_peer[9972] 	lookupHopsSig:mean 	-nan
scalar Network.dyn_peer[9973] 	lookupTimeSig:mean 	-nan
scalar Network.dyn_peer[9973] 	lookupStabilitySig:mean 	-nan
scalar Network.dyn_peer[9973] 	lookupHopsSig:mean 	-nan
scalar Network.dyn_peer[9974] 	lookupTimeSig:mean 	-nan
scalar Network.dyn_peer[9974] 	lookupStabilitySig:mean 	-nan
scalar Network.dyn_peer[9974] 	lookupHopsSig:mean 	-nan
scalar Network.dyn_peer[9975] 	lookupTimeSig:mean 	-nan
scalar Network.dyn_peer[9975] 	lookupStabilitySig:mean 	-nan
scalar Network.dyn_peer[9975] 	lookupHopsSig:mean 	-nan
scalar Network.dyn_peer[9976] 	lookupTimeSig:mean 	-nan
scalar Network.dyn_peer[9976] 	lookupStabilitySig:mean 	-nan
scalar Network.dyn_peer[9976] 	lookupHopsSig:mean 	-nan
scalar Network.dyn_peer[9977] 	lookupTimeSig:mean 	-nan
scalar Network.dyn_peer[9977] 	lookupStabilitySig:mean 	-nan
scalar Network.dyn_peer[9977] 	lookupHopsSig:mean 	-nan
scalar Network.dyn_peer[9978] 	lookupTimeSig:mean 	-nan
scalar Network.dyn_peer[9978] 	lookupStabilitySig:mean 	-nan
scalar Network.dyn_peer[9978] 	lookupHopsSig:mean 	-nan
scalar Network.dyn_peer[9979] 	lookupTimeSig:mean 	-nan
scalar Network.dyn_peer[9979] 	lookupStabilitySig:mean 	-nan
scalar Network.dyn_peer[9979] 	lookupHopsSig:mean 	-nan
scalar Network.dyn_peer[9980] 	lookupTimeSig:mean 	-nan
scalar Network.dyn_peer[9980] 	lookupStabilitySig:mean 	-nan
scalar Network.dyn_peer[9980] 	lookupHopsSig:mean 	-nan
scalar Network.dyn_peer[9981] 	lookupTimeSig:mean 	-nan
scalar Network.dyn_peer[9981] 	lookupStabilitySig:mean 	-nan
scalar Network.dyn_peer[9981] 	lookupHopsSig:mean 	-nan
scalar Network.dyn_peer[9982] 	lookupTimeSig:mean 	-nan
scalar Network.dyn_peer[9982] 	lookupStabilitySig:mean 	-nan
scalar Network.dyn_peer[9982] 	lookupHopsSig:mean 	-nan
scalar Network.dyn_peer[9983] 	lookupTimeSig:mean 	-nan
scalar Network.dyn_peer[9983] 	lookupStabilitySig:mean 	-nan
scalar Network.dyn_peer[9983] 	lookupHopsSig:mean 	-nan
scalar Network.dyn_peer[9984] 	lookupTimeSig:mean 	-nan
scalar Network.dyn_peer[9984] 	lookupStabilitySig:mean 	-nan
scalar Network.dyn_peer[9984] 	lookupHopsSig:mean 	-nan
scalar Network.dyn_peer[9985] 	lookupTimeSig:mean 	-nan
scalar Network.dyn_peer[9985] 	lookupStabilitySig:mean 	-nan
scalar Network.dyn_peer[9985] 	lookupHopsSig:mean 	-nan
scalar Network.dyn_peer[9986] 	lookupTimeSig:mean 	-nan
scalar Network.dyn_peer[9986] 	lookupStabilitySig:mean 	-nan
scalar Network.dyn_peer[9986] 	lookupHopsSig:mean 	-nan
scalar Network.dyn_peer[9987] 	lookupTimeSig:mean 	-nan
scalar Network.dyn_peer[9987] 	lookupStabilitySig:mean 	-nan
scalar Network.dyn_peer[9987] 	lookupHopsSig:mean 	-nan
scalar Network.dyn_peer[9988] 	lookupTimeSig:mean 	-nan
scalar Network.dyn_peer[9988] 	lookupStabilitySig:mean 	-nan
scalar Network.dyn_peer[9988] 	lookupHopsSig:mean 	-nan
scalar Network.dyn_peer[9989] 	lookupTimeSig:mean 	-nan
scalar Network.dyn_peer[9989] 	lookupStabilitySig:mean 	-nan
scalar Network.dyn_peer[9989] 	lookupHopsSig:mean 	-nan
scalar Network.dyn_peer[9990] 	lookupTimeSig:mean 	-nan
scalar Network.dyn_peer[9990] 	lookupStabilitySig:mean 	-nan
scalar Network.dyn_peer[9990] 	lookupHopsSig:mean 	-nan
scalar Network.dyn_peer[9991] 	lookupTimeSig:mean 	-nan
scalar Network.dyn_peer[9991] 	lookupStabilitySig:mean 	-nan
scalar Network.dyn_peer[9991] 	lookupHopsSig:mean 	-nan
scalar Network.dyn_peer[9992] 	lookupTimeSig:mean 	-nan
scalar Network.dyn_peer[9992] 	lookupStabilitySig:mean 	-nan
scalar Network.dyn_peer[9992] 	lookupHopsSig:mean 	-nan
scalar Network.dyn_peer[9993] 	lookupTimeSig:mean 	-nan
scalar Network.dyn_peer[9993] 	lookupStabilitySig:mean 	-nan
scalar Network.dyn_peer[9993] 	lookupHopsSig:mean 	-nan
scalar Network.dyn_peer[9994] 	lookupTimeSig:mean 	-nan
scalar Network.dyn_peer[9994] 	lookupStabilitySig:mean 	-nan
scalar Network.dyn_peer[9994] 	lookupHopsSig:mean 	-nan
scalar Network.dyn_peer[9995] 	lookupTimeSig:mean 	-nan
scalar Network.dyn_peer[9995] 	lookupStabilitySig:mean 	-nan
scalar Network.dyn_peer[9995] 	lookupHopsSig:mean 	-nan
scalar Network.dyn_peer[9996] 	lookupTimeSig:mean 	-nan
scalar Network.dyn_peer[9996] 	lookupStabilitySig:mean 	-nan
scalar Network.dyn_peer[9996] 	lookupHopsSig:mean 	-nan
scalar Network.dyn_peer[9997] 	lookupTimeSig:mean 	-nan
scalar Network.dyn_peer[9997] 	lookupStabilitySig:mean 	-nan
scalar Network.dyn_peer[9997] 	lookupHopsSig:mean 	-nan
scalar Network.dyn_peer[9998] 	lookupTimeSig:mean 	-nan
scalar Network.dyn_peer[9998] 	lookupStabilitySig:mean 	-nan
scalar Network.dyn_peer[9998] 	lookupHopsSig:mean 	-nan
scalar Network.dyn_peer[9999] 	lookupTimeSig:mean 	-nan
scalar Network.dyn_peer[9999] 	lookupStabilitySig:mean 	-nan
scalar Network.dyn_peer[9999] 	lookupHopsSig:mean 	-nan
scalar Network.churner 	inGoingSizeSig:mean 	1309.9086182763
