version 2
run Stability2-81-20130528-01:39:33-24168
attr configname Stability2
attr datetime 20130528-01:39:33
attr experiment Stability2
attr inifile omnetpp.ini
attr iterationvars $0=400
attr iterationvars2 "$0=400, $repetition=1"
attr measurement $0=400
attr network Network
attr processid 24168
attr repetition 1
attr replication #1
attr resultdir results
attr runnumber 81
attr seedset 81

scalar Network.dyn_peer[0] 	lookupTimeSig:mean 	2.3071428571429
scalar Network.dyn_peer[0] 	lookupStabilitySig:mean 	0.82325799340781
scalar Network.dyn_peer[0] 	lookupHopsSig:mean 	22.142857142857
scalar Network.dyn_peer[1] 	lookupTimeSig:mean 	3
scalar Network.dyn_peer[1] 	lookupStabilitySig:mean 	0.83425607430664
scalar Network.dyn_peer[1] 	lookupHopsSig:mean 	29.090909090909
scalar Network.dyn_peer[2] 	lookupTimeSig:mean 	1.2933333333333
scalar Network.dyn_peer[2] 	lookupStabilitySig:mean 	0.84424732585127
scalar Network.dyn_peer[2] 	lookupHopsSig:mean 	12
scalar Network.dyn_peer[3] 	lookupTimeSig:mean 	3.1941176470588
scalar Network.dyn_peer[3] 	lookupStabilitySig:mean 	0.85876245659721
scalar Network.dyn_peer[3] 	lookupHopsSig:mean 	31
scalar Network.dyn_peer[4] 	lookupTimeSig:mean 	1.2
scalar Network.dyn_peer[4] 	lookupStabilitySig:mean 	0.63391553486387
scalar Network.dyn_peer[4] 	lookupHopsSig:mean 	11.166666666667
scalar Network.dyn_peer[5] 	lookupTimeSig:mean 	3.00625
scalar Network.dyn_peer[5] 	lookupStabilitySig:mean 	0.82767633153708
scalar Network.dyn_peer[5] 	lookupHopsSig:mean 	29.125
scalar Network.dyn_peer[6] 	lookupTimeSig:mean 	2.32
scalar Network.dyn_peer[6] 	lookupStabilitySig:mean 	0.78164780642837
scalar Network.dyn_peer[6] 	lookupHopsSig:mean 	22.3
scalar Network.dyn_peer[7] 	lookupTimeSig:mean 	2.4333333333333
scalar Network.dyn_peer[7] 	lookupStabilitySig:mean 	0.82965209819376
scalar Network.dyn_peer[7] 	lookupHopsSig:mean 	23.4
scalar Network.dyn_peer[8] 	lookupTimeSig:mean 	2.2571428571429
scalar Network.dyn_peer[8] 	lookupStabilitySig:mean 	0.82314349671027
scalar Network.dyn_peer[8] 	lookupHopsSig:mean 	21.642857142857
scalar Network.dyn_peer[9] 	lookupTimeSig:mean 	3.8307692307692
scalar Network.dyn_peer[9] 	lookupStabilitySig:mean 	0.87215437396215
scalar Network.dyn_peer[9] 	lookupHopsSig:mean 	37.384615384615
scalar Network.dyn_peer[10] 	lookupTimeSig:mean 	1.575
scalar Network.dyn_peer[10] 	lookupStabilitySig:mean 	0.851153978069
scalar Network.dyn_peer[10] 	lookupHopsSig:mean 	14.833333333333
scalar Network.dyn_peer[11] 	lookupTimeSig:mean 	2.7714285714286
scalar Network.dyn_peer[11] 	lookupStabilitySig:mean 	0.85030292007806
scalar Network.dyn_peer[11] 	lookupHopsSig:mean 	26.785714285714
scalar Network.dyn_peer[12] 	lookupTimeSig:mean 	2.3086956521739
scalar Network.dyn_peer[12] 	lookupStabilitySig:mean 	0.91140217346433
scalar Network.dyn_peer[12] 	lookupHopsSig:mean 	22.130434782609
scalar Network.dyn_peer[13] 	lookupTimeSig:mean 	2.83
scalar Network.dyn_peer[13] 	lookupStabilitySig:mean 	0.77022501565516
scalar Network.dyn_peer[13] 	lookupHopsSig:mean 	27.4
scalar Network.dyn_peer[14] 	lookupTimeSig:mean 	1.75
scalar Network.dyn_peer[14] 	lookupStabilitySig:mean 	0.82011251120518
scalar Network.dyn_peer[14] 	lookupHopsSig:mean 	16.583333333333
scalar Network.dyn_peer[15] 	lookupTimeSig:mean 	3.3181818181818
scalar Network.dyn_peer[15] 	lookupStabilitySig:mean 	0.80002822777764
scalar Network.dyn_peer[15] 	lookupHopsSig:mean 	32.272727272727
scalar Network.dyn_peer[16] 	lookupTimeSig:mean 	3.1428571428571
scalar Network.dyn_peer[16] 	lookupStabilitySig:mean 	0.88231980032288
scalar Network.dyn_peer[16] 	lookupHopsSig:mean 	30.5
scalar Network.dyn_peer[17] 	lookupTimeSig:mean 	2.9384615384615
scalar Network.dyn_peer[17] 	lookupStabilitySig:mean 	0.83766074063113
scalar Network.dyn_peer[17] 	lookupHopsSig:mean 	28.461538461538
scalar Network.dyn_peer[18] 	lookupTimeSig:mean 	1.8882352941176
scalar Network.dyn_peer[18] 	lookupStabilitySig:mean 	0.86362461904612
scalar Network.dyn_peer[18] 	lookupHopsSig:mean 	17.941176470588
scalar Network.dyn_peer[19] 	lookupTimeSig:mean 	2.9142857142857
scalar Network.dyn_peer[19] 	lookupStabilitySig:mean 	0.82990506633983
scalar Network.dyn_peer[19] 	lookupHopsSig:mean 	28.214285714286
scalar Network.dyn_peer[20] 	lookupTimeSig:mean 	2.1142857142857
scalar Network.dyn_peer[20] 	lookupStabilitySig:mean 	0.88726666713843
scalar Network.dyn_peer[20] 	lookupHopsSig:mean 	20.190476190476
scalar Network.dyn_peer[21] 	lookupTimeSig:mean 	1.7615384615385
scalar Network.dyn_peer[21] 	lookupStabilitySig:mean 	0.81393082006476
scalar Network.dyn_peer[21] 	lookupHopsSig:mean 	16.692307692308
scalar Network.dyn_peer[22] 	lookupTimeSig:mean 	1.5727272727273
scalar Network.dyn_peer[22] 	lookupStabilitySig:mean 	0.80255832937969
scalar Network.dyn_peer[22] 	lookupHopsSig:mean 	14.818181818182
scalar Network.dyn_peer[23] 	lookupTimeSig:mean 	2.4866666666667
scalar Network.dyn_peer[23] 	lookupStabilitySig:mean 	0.8610294683526
scalar Network.dyn_peer[23] 	lookupHopsSig:mean 	23.933333333333
scalar Network.dyn_peer[24] 	lookupTimeSig:mean 	2.59375
scalar Network.dyn_peer[24] 	lookupStabilitySig:mean 	0.87166395346867
scalar Network.dyn_peer[24] 	lookupHopsSig:mean 	25
scalar Network.dyn_peer[25] 	lookupTimeSig:mean 	2.3285714285714
scalar Network.dyn_peer[25] 	lookupStabilitySig:mean 	0.68465942570141
scalar Network.dyn_peer[25] 	lookupHopsSig:mean 	22.428571428571
scalar Network.dyn_peer[26] 	lookupTimeSig:mean 	2.02
scalar Network.dyn_peer[26] 	lookupStabilitySig:mean 	0.88297850207115
scalar Network.dyn_peer[26] 	lookupHopsSig:mean 	19.266666666667
scalar Network.dyn_peer[27] 	lookupTimeSig:mean 	3.01
scalar Network.dyn_peer[27] 	lookupStabilitySig:mean 	0.79575643632561
scalar Network.dyn_peer[27] 	lookupHopsSig:mean 	29.2
scalar Network.dyn_peer[28] 	lookupTimeSig:mean 	3.2454545454545
scalar Network.dyn_peer[28] 	lookupStabilitySig:mean 	0.8802498021925
scalar Network.dyn_peer[28] 	lookupHopsSig:mean 	31.545454545455
scalar Network.dyn_peer[29] 	lookupTimeSig:mean 	2.26
scalar Network.dyn_peer[29] 	lookupStabilitySig:mean 	0.84139467012137
scalar Network.dyn_peer[29] 	lookupHopsSig:mean 	21.666666666667
scalar Network.dyn_peer[30] 	lookupTimeSig:mean 	2.2666666666667
scalar Network.dyn_peer[30] 	lookupStabilitySig:mean 	0.82649131786699
scalar Network.dyn_peer[30] 	lookupHopsSig:mean 	21.75
scalar Network.dyn_peer[31] 	lookupTimeSig:mean 	1.8529411764706
scalar Network.dyn_peer[31] 	lookupStabilitySig:mean 	0.87762838410323
scalar Network.dyn_peer[31] 	lookupHopsSig:mean 	17.588235294118
scalar Network.dyn_peer[32] 	lookupTimeSig:mean 	2.7833333333333
scalar Network.dyn_peer[32] 	lookupStabilitySig:mean 	0.85168297123164
scalar Network.dyn_peer[32] 	lookupHopsSig:mean 	26.916666666667
scalar Network.dyn_peer[33] 	lookupTimeSig:mean 	2.0153846153846
scalar Network.dyn_peer[33] 	lookupStabilitySig:mean 	0.88774955659532
scalar Network.dyn_peer[33] 	lookupHopsSig:mean 	19.230769230769
scalar Network.dyn_peer[34] 	lookupTimeSig:mean 	1.6076923076923
scalar Network.dyn_peer[34] 	lookupStabilitySig:mean 	0.83824627201718
scalar Network.dyn_peer[34] 	lookupHopsSig:mean 	15.153846153846
scalar Network.dyn_peer[35] 	lookupTimeSig:mean 	2.5235294117647
scalar Network.dyn_peer[35] 	lookupStabilitySig:mean 	0.89100495731349
scalar Network.dyn_peer[35] 	lookupHopsSig:mean 	24.294117647059
scalar Network.dyn_peer[36] 	lookupTimeSig:mean 	2.12
scalar Network.dyn_peer[36] 	lookupStabilitySig:mean 	0.87204851849626
scalar Network.dyn_peer[36] 	lookupHopsSig:mean 	20.266666666667
scalar Network.dyn_peer[37] 	lookupTimeSig:mean 	1.7866666666667
scalar Network.dyn_peer[37] 	lookupStabilitySig:mean 	0.86613159656214
scalar Network.dyn_peer[37] 	lookupHopsSig:mean 	16.933333333333
scalar Network.dyn_peer[38] 	lookupTimeSig:mean 	1.4588235294118
scalar Network.dyn_peer[38] 	lookupStabilitySig:mean 	0.88109627671485
scalar Network.dyn_peer[38] 	lookupHopsSig:mean 	13.647058823529
scalar Network.dyn_peer[39] 	lookupTimeSig:mean 	2.34375
scalar Network.dyn_peer[39] 	lookupStabilitySig:mean 	0.88289240622544
scalar Network.dyn_peer[39] 	lookupHopsSig:mean 	22.5
scalar Network.dyn_peer[40] 	lookupTimeSig:mean 	3.2285714285714
scalar Network.dyn_peer[40] 	lookupStabilitySig:mean 	0.87603853034255
scalar Network.dyn_peer[40] 	lookupHopsSig:mean 	31.357142857143
scalar Network.dyn_peer[41] 	lookupTimeSig:mean 	1.31
scalar Network.dyn_peer[41] 	lookupStabilitySig:mean 	0.81356483870186
scalar Network.dyn_peer[41] 	lookupHopsSig:mean 	12.2
scalar Network.dyn_peer[42] 	lookupTimeSig:mean 	2
scalar Network.dyn_peer[42] 	lookupStabilitySig:mean 	0.86975332392523
scalar Network.dyn_peer[42] 	lookupHopsSig:mean 	19.076923076923
scalar Network.dyn_peer[43] 	lookupTimeSig:mean 	2.5142857142857
scalar Network.dyn_peer[43] 	lookupStabilitySig:mean 	0.9090481099473
scalar Network.dyn_peer[43] 	lookupHopsSig:mean 	24.214285714286
scalar Network.dyn_peer[44] 	lookupTimeSig:mean 	2.6166666666667
scalar Network.dyn_peer[44] 	lookupStabilitySig:mean 	0.88807765526387
scalar Network.dyn_peer[44] 	lookupHopsSig:mean 	25.25
scalar Network.dyn_peer[45] 	lookupTimeSig:mean 	1.1533333333333
scalar Network.dyn_peer[45] 	lookupStabilitySig:mean 	0.88086337114995
scalar Network.dyn_peer[45] 	lookupHopsSig:mean 	10.6
scalar Network.dyn_peer[46] 	lookupTimeSig:mean 	2.02
scalar Network.dyn_peer[46] 	lookupStabilitySig:mean 	0.85947410377363
scalar Network.dyn_peer[46] 	lookupHopsSig:mean 	19.266666666667
scalar Network.dyn_peer[47] 	lookupTimeSig:mean 	2.2909090909091
scalar Network.dyn_peer[47] 	lookupStabilitySig:mean 	0.85703026198528
scalar Network.dyn_peer[47] 	lookupHopsSig:mean 	22
scalar Network.dyn_peer[48] 	lookupTimeSig:mean 	2.3928571428571
scalar Network.dyn_peer[48] 	lookupStabilitySig:mean 	0.9060022437812
scalar Network.dyn_peer[48] 	lookupHopsSig:mean 	23
scalar Network.dyn_peer[49] 	lookupTimeSig:mean 	2.2631578947368
scalar Network.dyn_peer[49] 	lookupStabilitySig:mean 	0.90247853281663
scalar Network.dyn_peer[49] 	lookupHopsSig:mean 	21.684210526316
scalar Network.dyn_peer[50] 	lookupTimeSig:mean 	3.0866666666667
scalar Network.dyn_peer[50] 	lookupStabilitySig:mean 	0.88115744444852
scalar Network.dyn_peer[50] 	lookupHopsSig:mean 	29.933333333333
scalar Network.dyn_peer[51] 	lookupTimeSig:mean 	2.1142857142857
scalar Network.dyn_peer[51] 	lookupStabilitySig:mean 	0.92186957333303
scalar Network.dyn_peer[51] 	lookupHopsSig:mean 	20.214285714286
scalar Network.dyn_peer[52] 	lookupTimeSig:mean 	2.2
scalar Network.dyn_peer[52] 	lookupStabilitySig:mean 	0.88838463258715
scalar Network.dyn_peer[52] 	lookupHopsSig:mean 	21.076923076923
scalar Network.dyn_peer[53] 	lookupTimeSig:mean 	2.215
scalar Network.dyn_peer[53] 	lookupStabilitySig:mean 	0.91785314199515
scalar Network.dyn_peer[53] 	lookupHopsSig:mean 	21.2
scalar Network.dyn_peer[54] 	lookupTimeSig:mean 	2.3076923076923
scalar Network.dyn_peer[54] 	lookupStabilitySig:mean 	0.87718287862551
scalar Network.dyn_peer[54] 	lookupHopsSig:mean 	22.153846153846
scalar Network.dyn_peer[55] 	lookupTimeSig:mean 	1.9882352941176
scalar Network.dyn_peer[55] 	lookupStabilitySig:mean 	0.90109626146253
scalar Network.dyn_peer[55] 	lookupHopsSig:mean 	18.941176470588
scalar Network.dyn_peer[56] 	lookupTimeSig:mean 	2.8076923076923
scalar Network.dyn_peer[56] 	lookupStabilitySig:mean 	0.90450896169596
scalar Network.dyn_peer[56] 	lookupHopsSig:mean 	27.153846153846
scalar Network.dyn_peer[57] 	lookupTimeSig:mean 	2.29375
scalar Network.dyn_peer[57] 	lookupStabilitySig:mean 	0.89898136537522
scalar Network.dyn_peer[57] 	lookupHopsSig:mean 	22
scalar Network.dyn_peer[58] 	lookupTimeSig:mean 	2.5545454545455
scalar Network.dyn_peer[58] 	lookupStabilitySig:mean 	0.86381233695217
scalar Network.dyn_peer[58] 	lookupHopsSig:mean 	24.636363636364
scalar Network.dyn_peer[59] 	lookupTimeSig:mean 	2.0666666666667
scalar Network.dyn_peer[59] 	lookupStabilitySig:mean 	0.85770001345211
scalar Network.dyn_peer[59] 	lookupHopsSig:mean 	19.777777777778
scalar Network.dyn_peer[60] 	lookupTimeSig:mean 	2.5
scalar Network.dyn_peer[60] 	lookupStabilitySig:mean 	0.90888249292038
scalar Network.dyn_peer[60] 	lookupHopsSig:mean 	24.05
scalar Network.dyn_peer[61] 	lookupTimeSig:mean 	2.352380952381
scalar Network.dyn_peer[61] 	lookupStabilitySig:mean 	0.91238778036287
scalar Network.dyn_peer[61] 	lookupHopsSig:mean 	22.571428571429
scalar Network.dyn_peer[62] 	lookupTimeSig:mean 	1.4333333333333
scalar Network.dyn_peer[62] 	lookupStabilitySig:mean 	0.81278991926875
scalar Network.dyn_peer[62] 	lookupHopsSig:mean 	13.444444444444
scalar Network.dyn_peer[63] 	lookupTimeSig:mean 	1.7
scalar Network.dyn_peer[63] 	lookupStabilitySig:mean 	0.92407776433088
scalar Network.dyn_peer[63] 	lookupHopsSig:mean 	16.047619047619
scalar Network.dyn_peer[64] 	lookupTimeSig:mean 	3.108
scalar Network.dyn_peer[64] 	lookupStabilitySig:mean 	0.94353201746475
scalar Network.dyn_peer[64] 	lookupHopsSig:mean 	30.12
scalar Network.dyn_peer[65] 	lookupTimeSig:mean 	2.6823529411765
scalar Network.dyn_peer[65] 	lookupStabilitySig:mean 	0.89677694215275
scalar Network.dyn_peer[65] 	lookupHopsSig:mean 	25.882352941176
scalar Network.dyn_peer[66] 	lookupTimeSig:mean 	1.93125
scalar Network.dyn_peer[66] 	lookupStabilitySig:mean 	0.91173603717471
scalar Network.dyn_peer[66] 	lookupHopsSig:mean 	18.375
scalar Network.dyn_peer[67] 	lookupTimeSig:mean 	2.53125
scalar Network.dyn_peer[67] 	lookupStabilitySig:mean 	0.918280335085
scalar Network.dyn_peer[67] 	lookupHopsSig:mean 	24.375
scalar Network.dyn_peer[68] 	lookupTimeSig:mean 	1.7384615384615
scalar Network.dyn_peer[68] 	lookupStabilitySig:mean 	0.89714607318792
scalar Network.dyn_peer[68] 	lookupHopsSig:mean 	16.461538461538
scalar Network.dyn_peer[69] 	lookupTimeSig:mean 	2.66875
scalar Network.dyn_peer[69] 	lookupStabilitySig:mean 	0.91218785234378
scalar Network.dyn_peer[69] 	lookupHopsSig:mean 	25.75
scalar Network.dyn_peer[70] 	lookupTimeSig:mean 	2.8944444444444
scalar Network.dyn_peer[70] 	lookupStabilitySig:mean 	0.90702708278938
scalar Network.dyn_peer[70] 	lookupHopsSig:mean 	28
scalar Network.dyn_peer[71] 	lookupTimeSig:mean 	2.625
scalar Network.dyn_peer[71] 	lookupStabilitySig:mean 	0.88246132893255
scalar Network.dyn_peer[71] 	lookupHopsSig:mean 	25.333333333333
scalar Network.dyn_peer[72] 	lookupTimeSig:mean 	2.1875
scalar Network.dyn_peer[72] 	lookupStabilitySig:mean 	0.91394968569512
scalar Network.dyn_peer[72] 	lookupHopsSig:mean 	20.9375
scalar Network.dyn_peer[73] 	lookupTimeSig:mean 	2.1272727272727
scalar Network.dyn_peer[73] 	lookupStabilitySig:mean 	0.89447162884542
scalar Network.dyn_peer[73] 	lookupHopsSig:mean 	20.363636363636
scalar Network.dyn_peer[74] 	lookupTimeSig:mean 	1.7125
scalar Network.dyn_peer[74] 	lookupStabilitySig:mean 	0.91992701232084
scalar Network.dyn_peer[74] 	lookupHopsSig:mean 	16.1875
scalar Network.dyn_peer[75] 	lookupTimeSig:mean 	1.8
scalar Network.dyn_peer[75] 	lookupStabilitySig:mean 	0.90633063022431
scalar Network.dyn_peer[75] 	lookupHopsSig:mean 	17.058823529412
scalar Network.dyn_peer[76] 	lookupTimeSig:mean 	2.2066666666667
scalar Network.dyn_peer[76] 	lookupStabilitySig:mean 	0.90671117262294
scalar Network.dyn_peer[76] 	lookupHopsSig:mean 	21.133333333333
scalar Network.dyn_peer[77] 	lookupTimeSig:mean 	1.8842105263158
scalar Network.dyn_peer[77] 	lookupStabilitySig:mean 	0.92255525094898
scalar Network.dyn_peer[77] 	lookupHopsSig:mean 	17.894736842105
scalar Network.dyn_peer[78] 	lookupTimeSig:mean 	2.6190476190476
scalar Network.dyn_peer[78] 	lookupStabilitySig:mean 	0.93859078934128
scalar Network.dyn_peer[78] 	lookupHopsSig:mean 	25.238095238095
scalar Network.dyn_peer[79] 	lookupTimeSig:mean 	2.5941176470588
scalar Network.dyn_peer[79] 	lookupStabilitySig:mean 	0.91856803367024
scalar Network.dyn_peer[79] 	lookupHopsSig:mean 	25
scalar Network.dyn_peer[80] 	lookupTimeSig:mean 	2.9285714285714
scalar Network.dyn_peer[80] 	lookupStabilitySig:mean 	0.89646648349507
scalar Network.dyn_peer[80] 	lookupHopsSig:mean 	28.357142857143
scalar Network.dyn_peer[81] 	lookupTimeSig:mean 	2.6428571428571
scalar Network.dyn_peer[81] 	lookupStabilitySig:mean 	0.93776941205752
scalar Network.dyn_peer[81] 	lookupHopsSig:mean 	25.47619047619
scalar Network.dyn_peer[82] 	lookupTimeSig:mean 	1.515
scalar Network.dyn_peer[82] 	lookupStabilitySig:mean 	0.93644853156293
scalar Network.dyn_peer[82] 	lookupHopsSig:mean 	14.2
scalar Network.dyn_peer[83] 	lookupTimeSig:mean 	3.1538461538462
scalar Network.dyn_peer[83] 	lookupStabilitySig:mean 	0.91042975074827
scalar Network.dyn_peer[83] 	lookupHopsSig:mean 	30.615384615385
scalar Network.dyn_peer[84] 	lookupTimeSig:mean 	2.9916666666667
scalar Network.dyn_peer[84] 	lookupStabilitySig:mean 	0.91744572591657
scalar Network.dyn_peer[84] 	lookupHopsSig:mean 	29
scalar Network.dyn_peer[85] 	lookupTimeSig:mean 	2.1944444444444
scalar Network.dyn_peer[85] 	lookupStabilitySig:mean 	0.91251923719473
scalar Network.dyn_peer[85] 	lookupHopsSig:mean 	21
scalar Network.dyn_peer[86] 	lookupTimeSig:mean 	3.625
scalar Network.dyn_peer[86] 	lookupStabilitySig:mean 	0.85486742015928
scalar Network.dyn_peer[86] 	lookupHopsSig:mean 	35.5
scalar Network.dyn_peer[87] 	lookupTimeSig:mean 	2.3142857142857
scalar Network.dyn_peer[87] 	lookupStabilitySig:mean 	0.92078082223556
scalar Network.dyn_peer[87] 	lookupHopsSig:mean 	22.214285714286
scalar Network.dyn_peer[88] 	lookupTimeSig:mean 	2.3529411764706
scalar Network.dyn_peer[88] 	lookupStabilitySig:mean 	0.92621005209067
scalar Network.dyn_peer[88] 	lookupHopsSig:mean 	22.588235294118
scalar Network.dyn_peer[89] 	lookupTimeSig:mean 	1.8388888888889
scalar Network.dyn_peer[89] 	lookupStabilitySig:mean 	0.92401495785452
scalar Network.dyn_peer[89] 	lookupHopsSig:mean 	17.444444444444
scalar Network.dyn_peer[90] 	lookupTimeSig:mean 	2.6555555555556
scalar Network.dyn_peer[90] 	lookupStabilitySig:mean 	0.90626362028221
scalar Network.dyn_peer[90] 	lookupHopsSig:mean 	25.666666666667
scalar Network.dyn_peer[91] 	lookupTimeSig:mean 	1.8333333333333
scalar Network.dyn_peer[91] 	lookupStabilitySig:mean 	0.93733818801342
scalar Network.dyn_peer[91] 	lookupHopsSig:mean 	17.380952380952
scalar Network.dyn_peer[92] 	lookupTimeSig:mean 	1.8153846153846
scalar Network.dyn_peer[92] 	lookupStabilitySig:mean 	0.91131388553633
scalar Network.dyn_peer[92] 	lookupHopsSig:mean 	17.230769230769
scalar Network.dyn_peer[93] 	lookupTimeSig:mean 	2.1466666666667
scalar Network.dyn_peer[93] 	lookupStabilitySig:mean 	0.92695916468898
scalar Network.dyn_peer[93] 	lookupHopsSig:mean 	20.533333333333
scalar Network.dyn_peer[94] 	lookupTimeSig:mean 	1.35
scalar Network.dyn_peer[94] 	lookupStabilitySig:mean 	0.92711408860568
scalar Network.dyn_peer[94] 	lookupHopsSig:mean 	12.555555555556
scalar Network.dyn_peer[95] 	lookupTimeSig:mean 	2.14375
scalar Network.dyn_peer[95] 	lookupStabilitySig:mean 	0.90430496925546
scalar Network.dyn_peer[95] 	lookupHopsSig:mean 	20.5
scalar Network.dyn_peer[96] 	lookupTimeSig:mean 	3.5636363636364
scalar Network.dyn_peer[96] 	lookupStabilitySig:mean 	0.94286610098259
scalar Network.dyn_peer[96] 	lookupHopsSig:mean 	34.681818181818
scalar Network.dyn_peer[97] 	lookupTimeSig:mean 	2.3066666666667
scalar Network.dyn_peer[97] 	lookupStabilitySig:mean 	0.93129044783612
scalar Network.dyn_peer[97] 	lookupHopsSig:mean 	22.133333333333
scalar Network.dyn_peer[98] 	lookupTimeSig:mean 	1.7692307692308
scalar Network.dyn_peer[98] 	lookupStabilitySig:mean 	0.91437529231637
scalar Network.dyn_peer[98] 	lookupHopsSig:mean 	16.769230769231
scalar Network.dyn_peer[99] 	lookupTimeSig:mean 	2.6052631578947
scalar Network.dyn_peer[99] 	lookupStabilitySig:mean 	0.93116356024372
scalar Network.dyn_peer[99] 	lookupHopsSig:mean 	25.105263157895
scalar Network.dyn_peer[100] 	lookupTimeSig:mean 	2.4384615384615
scalar Network.dyn_peer[100] 	lookupStabilitySig:mean 	0.9488238111998
scalar Network.dyn_peer[100] 	lookupHopsSig:mean 	23.423076923077
scalar Network.dyn_peer[101] 	lookupTimeSig:mean 	1.6
scalar Network.dyn_peer[101] 	lookupStabilitySig:mean 	0.92151432534059
scalar Network.dyn_peer[101] 	lookupHopsSig:mean 	15.066666666667
scalar Network.dyn_peer[102] 	lookupTimeSig:mean 	2.4294117647059
scalar Network.dyn_peer[102] 	lookupStabilitySig:mean 	0.94262244507177
scalar Network.dyn_peer[102] 	lookupHopsSig:mean 	23.352941176471
scalar Network.dyn_peer[103] 	lookupTimeSig:mean 	1.6176470588235
scalar Network.dyn_peer[103] 	lookupStabilitySig:mean 	0.92430070524707
scalar Network.dyn_peer[103] 	lookupHopsSig:mean 	15.235294117647
scalar Network.dyn_peer[104] 	lookupTimeSig:mean 	2.21
scalar Network.dyn_peer[104] 	lookupStabilitySig:mean 	0.93326898576925
scalar Network.dyn_peer[104] 	lookupHopsSig:mean 	21.15
scalar Network.dyn_peer[105] 	lookupTimeSig:mean 	2.237037037037
scalar Network.dyn_peer[105] 	lookupStabilitySig:mean 	0.95678471149101
scalar Network.dyn_peer[105] 	lookupHopsSig:mean 	21.407407407407
scalar Network.dyn_peer[106] 	lookupTimeSig:mean 	2.9714285714286
scalar Network.dyn_peer[106] 	lookupStabilitySig:mean 	0.93410900479648
scalar Network.dyn_peer[106] 	lookupHopsSig:mean 	28.785714285714
scalar Network.dyn_peer[107] 	lookupTimeSig:mean 	2.4142857142857
scalar Network.dyn_peer[107] 	lookupStabilitySig:mean 	0.91545493674598
scalar Network.dyn_peer[107] 	lookupHopsSig:mean 	23.214285714286
scalar Network.dyn_peer[108] 	lookupTimeSig:mean 	2.2478260869565
scalar Network.dyn_peer[108] 	lookupStabilitySig:mean 	0.94521589666787
scalar Network.dyn_peer[108] 	lookupHopsSig:mean 	21.521739130435
scalar Network.dyn_peer[109] 	lookupTimeSig:mean 	2.0625
scalar Network.dyn_peer[109] 	lookupStabilitySig:mean 	0.94289983880299
scalar Network.dyn_peer[109] 	lookupHopsSig:mean 	19.6875
scalar Network.dyn_peer[110] 	lookupTimeSig:mean 	2.69
scalar Network.dyn_peer[110] 	lookupStabilitySig:mean 	0.91169740852201
scalar Network.dyn_peer[110] 	lookupHopsSig:mean 	26
scalar Network.dyn_peer[111] 	lookupTimeSig:mean 	3.1
scalar Network.dyn_peer[111] 	lookupStabilitySig:mean 	0.90076675731689
scalar Network.dyn_peer[111] 	lookupHopsSig:mean 	30.1
scalar Network.dyn_peer[112] 	lookupTimeSig:mean 	2.82
scalar Network.dyn_peer[112] 	lookupStabilitySig:mean 	0.91531970668584
scalar Network.dyn_peer[112] 	lookupHopsSig:mean 	27.266666666667
scalar Network.dyn_peer[113] 	lookupTimeSig:mean 	2.6214285714286
scalar Network.dyn_peer[113] 	lookupStabilitySig:mean 	0.91311415998332
scalar Network.dyn_peer[113] 	lookupHopsSig:mean 	25.285714285714
scalar Network.dyn_peer[114] 	lookupTimeSig:mean 	2.03125
scalar Network.dyn_peer[114] 	lookupStabilitySig:mean 	0.93627361085964
scalar Network.dyn_peer[114] 	lookupHopsSig:mean 	19.375
scalar Network.dyn_peer[115] 	lookupTimeSig:mean 	2.0571428571429
scalar Network.dyn_peer[115] 	lookupStabilitySig:mean 	0.92396170353251
scalar Network.dyn_peer[115] 	lookupHopsSig:mean 	19.642857142857
scalar Network.dyn_peer[116] 	lookupTimeSig:mean 	2.5230769230769
scalar Network.dyn_peer[116] 	lookupStabilitySig:mean 	0.92692686492004
scalar Network.dyn_peer[116] 	lookupHopsSig:mean 	24.307692307692
scalar Network.dyn_peer[117] 	lookupTimeSig:mean 	1.7
scalar Network.dyn_peer[117] 	lookupStabilitySig:mean 	0.94200724755259
scalar Network.dyn_peer[117] 	lookupHopsSig:mean 	16.083333333333
scalar Network.dyn_peer[118] 	lookupTimeSig:mean 	2.0222222222222
scalar Network.dyn_peer[118] 	lookupStabilitySig:mean 	0.94435995232521
scalar Network.dyn_peer[118] 	lookupHopsSig:mean 	19.277777777778
scalar Network.dyn_peer[119] 	lookupTimeSig:mean 	2.2866666666667
scalar Network.dyn_peer[119] 	lookupStabilitySig:mean 	0.94152796119452
scalar Network.dyn_peer[119] 	lookupHopsSig:mean 	21.933333333333
scalar Network.dyn_peer[120] 	lookupTimeSig:mean 	2.0875
scalar Network.dyn_peer[120] 	lookupStabilitySig:mean 	0.90603329893202
scalar Network.dyn_peer[120] 	lookupHopsSig:mean 	20
scalar Network.dyn_peer[121] 	lookupTimeSig:mean 	2.4533333333333
scalar Network.dyn_peer[121] 	lookupStabilitySig:mean 	0.9309566228961
scalar Network.dyn_peer[121] 	lookupHopsSig:mean 	23.6
scalar Network.dyn_peer[122] 	lookupTimeSig:mean 	2.7944444444444
scalar Network.dyn_peer[122] 	lookupStabilitySig:mean 	0.93200244620028
scalar Network.dyn_peer[122] 	lookupHopsSig:mean 	27
scalar Network.dyn_peer[123] 	lookupTimeSig:mean 	1.9714285714286
scalar Network.dyn_peer[123] 	lookupStabilitySig:mean 	0.93089919514023
scalar Network.dyn_peer[123] 	lookupHopsSig:mean 	18.785714285714
scalar Network.dyn_peer[124] 	lookupTimeSig:mean 	1.89
scalar Network.dyn_peer[124] 	lookupStabilitySig:mean 	0.92976910579018
scalar Network.dyn_peer[124] 	lookupHopsSig:mean 	18
scalar Network.dyn_peer[125] 	lookupTimeSig:mean 	2.3529411764706
scalar Network.dyn_peer[125] 	lookupStabilitySig:mean 	0.93678787550615
scalar Network.dyn_peer[125] 	lookupHopsSig:mean 	22.588235294118
scalar Network.dyn_peer[126] 	lookupTimeSig:mean 	2.8481481481481
scalar Network.dyn_peer[126] 	lookupStabilitySig:mean 	0.95613616309129
scalar Network.dyn_peer[126] 	lookupHopsSig:mean 	27.518518518519
scalar Network.dyn_peer[127] 	lookupTimeSig:mean 	2.2916666666667
scalar Network.dyn_peer[127] 	lookupStabilitySig:mean 	0.92742543442485
scalar Network.dyn_peer[127] 	lookupHopsSig:mean 	22
scalar Network.dyn_peer[128] 	lookupTimeSig:mean 	2.6454545454545
scalar Network.dyn_peer[128] 	lookupStabilitySig:mean 	0.91606274365701
scalar Network.dyn_peer[128] 	lookupHopsSig:mean 	25.545454545455
scalar Network.dyn_peer[129] 	lookupTimeSig:mean 	2.2411764705882
scalar Network.dyn_peer[129] 	lookupStabilitySig:mean 	0.94130171802552
scalar Network.dyn_peer[129] 	lookupHopsSig:mean 	21.470588235294
scalar Network.dyn_peer[130] 	lookupTimeSig:mean 	2.9357142857143
scalar Network.dyn_peer[130] 	lookupStabilitySig:mean 	0.94208028385349
scalar Network.dyn_peer[130] 	lookupHopsSig:mean 	28.428571428571
scalar Network.dyn_peer[131] 	lookupTimeSig:mean 	1.86875
scalar Network.dyn_peer[131] 	lookupStabilitySig:mean 	0.93524855590658
scalar Network.dyn_peer[131] 	lookupHopsSig:mean 	17.75
scalar Network.dyn_peer[132] 	lookupTimeSig:mean 	1.7785714285714
scalar Network.dyn_peer[132] 	lookupStabilitySig:mean 	0.93905002785115
scalar Network.dyn_peer[132] 	lookupHopsSig:mean 	16.857142857143
scalar Network.dyn_peer[133] 	lookupTimeSig:mean 	2.4578947368421
scalar Network.dyn_peer[133] 	lookupStabilitySig:mean 	0.94286878462146
scalar Network.dyn_peer[133] 	lookupHopsSig:mean 	23.631578947368
scalar Network.dyn_peer[134] 	lookupTimeSig:mean 	2.3818181818182
scalar Network.dyn_peer[134] 	lookupStabilitySig:mean 	0.96133751266594
scalar Network.dyn_peer[134] 	lookupHopsSig:mean 	22.863636363636
scalar Network.dyn_peer[135] 	lookupTimeSig:mean 	3.4333333333333
scalar Network.dyn_peer[135] 	lookupStabilitySig:mean 	0.91135851790508
scalar Network.dyn_peer[135] 	lookupHopsSig:mean 	33.416666666667
scalar Network.dyn_peer[136] 	lookupTimeSig:mean 	2.3
scalar Network.dyn_peer[136] 	lookupStabilitySig:mean 	0.90770041721407
scalar Network.dyn_peer[136] 	lookupHopsSig:mean 	22.125
scalar Network.dyn_peer[137] 	lookupTimeSig:mean 	3.0785714285714
scalar Network.dyn_peer[137] 	lookupStabilitySig:mean 	0.94544222804585
scalar Network.dyn_peer[137] 	lookupHopsSig:mean 	29.857142857143
scalar Network.dyn_peer[138] 	lookupTimeSig:mean 	1.625
scalar Network.dyn_peer[138] 	lookupStabilitySig:mean 	0.93726707191672
scalar Network.dyn_peer[138] 	lookupHopsSig:mean 	15.3125
scalar Network.dyn_peer[139] 	lookupTimeSig:mean 	1.6411764705882
scalar Network.dyn_peer[139] 	lookupStabilitySig:mean 	0.94975752416341
scalar Network.dyn_peer[139] 	lookupHopsSig:mean 	15.470588235294
scalar Network.dyn_peer[140] 	lookupTimeSig:mean 	2.1882352941176
scalar Network.dyn_peer[140] 	lookupStabilitySig:mean 	0.94598103265333
scalar Network.dyn_peer[140] 	lookupHopsSig:mean 	20.941176470588
scalar Network.dyn_peer[141] 	lookupTimeSig:mean 	2.0833333333333
scalar Network.dyn_peer[141] 	lookupStabilitySig:mean 	0.92144275153987
scalar Network.dyn_peer[141] 	lookupHopsSig:mean 	19.916666666667
scalar Network.dyn_peer[142] 	lookupTimeSig:mean 	1.9444444444444
scalar Network.dyn_peer[142] 	lookupStabilitySig:mean 	0.9277793780202
scalar Network.dyn_peer[142] 	lookupHopsSig:mean 	18.555555555556
scalar Network.dyn_peer[143] 	lookupTimeSig:mean 	2.0166666666667
scalar Network.dyn_peer[143] 	lookupStabilitySig:mean 	0.93983785192379
scalar Network.dyn_peer[143] 	lookupHopsSig:mean 	19.222222222222
scalar Network.dyn_peer[144] 	lookupTimeSig:mean 	2.1166666666667
scalar Network.dyn_peer[144] 	lookupStabilitySig:mean 	0.92602566483159
scalar Network.dyn_peer[144] 	lookupHopsSig:mean 	20.25
scalar Network.dyn_peer[145] 	lookupTimeSig:mean 	2.3466666666667
scalar Network.dyn_peer[145] 	lookupStabilitySig:mean 	0.93150174021721
scalar Network.dyn_peer[145] 	lookupHopsSig:mean 	22.533333333333
scalar Network.dyn_peer[146] 	lookupTimeSig:mean 	1.9733333333333
scalar Network.dyn_peer[146] 	lookupStabilitySig:mean 	0.92967929554482
scalar Network.dyn_peer[146] 	lookupHopsSig:mean 	18.8
scalar Network.dyn_peer[147] 	lookupTimeSig:mean 	2.545
scalar Network.dyn_peer[147] 	lookupStabilitySig:mean 	0.94769817835186
scalar Network.dyn_peer[147] 	lookupHopsSig:mean 	24.5
scalar Network.dyn_peer[148] 	lookupTimeSig:mean 	2.76
scalar Network.dyn_peer[148] 	lookupStabilitySig:mean 	0.94245671409493
scalar Network.dyn_peer[148] 	lookupHopsSig:mean 	26.666666666667
scalar Network.dyn_peer[149] 	lookupTimeSig:mean 	2.2222222222222
scalar Network.dyn_peer[149] 	lookupStabilitySig:mean 	0.94372621235541
scalar Network.dyn_peer[149] 	lookupHopsSig:mean 	21.277777777778
scalar Network.dyn_peer[150] 	lookupTimeSig:mean 	1.86
scalar Network.dyn_peer[150] 	lookupStabilitySig:mean 	0.91873201578856
scalar Network.dyn_peer[150] 	lookupHopsSig:mean 	17.7
scalar Network.dyn_peer[151] 	lookupTimeSig:mean 	2.4736842105263
scalar Network.dyn_peer[151] 	lookupStabilitySig:mean 	0.95024319321505
scalar Network.dyn_peer[151] 	lookupHopsSig:mean 	23.789473684211
scalar Network.dyn_peer[152] 	lookupTimeSig:mean 	3.925
scalar Network.dyn_peer[152] 	lookupStabilitySig:mean 	0.90872552222572
scalar Network.dyn_peer[152] 	lookupHopsSig:mean 	38.375
scalar Network.dyn_peer[153] 	lookupTimeSig:mean 	3.54
scalar Network.dyn_peer[153] 	lookupStabilitySig:mean 	0.93447607792914
scalar Network.dyn_peer[153] 	lookupHopsSig:mean 	34.5
scalar Network.dyn_peer[154] 	lookupTimeSig:mean 	2.7
scalar Network.dyn_peer[154] 	lookupStabilitySig:mean 	0.93325645859087
scalar Network.dyn_peer[154] 	lookupHopsSig:mean 	26.071428571429
scalar Network.dyn_peer[155] 	lookupTimeSig:mean 	2.9916666666667
scalar Network.dyn_peer[155] 	lookupStabilitySig:mean 	0.93330714851618
scalar Network.dyn_peer[155] 	lookupHopsSig:mean 	29
scalar Network.dyn_peer[156] 	lookupTimeSig:mean 	2.85
scalar Network.dyn_peer[156] 	lookupStabilitySig:mean 	0.92964805702546
scalar Network.dyn_peer[156] 	lookupHopsSig:mean 	27.571428571429
scalar Network.dyn_peer[157] 	lookupTimeSig:mean 	2.85
scalar Network.dyn_peer[157] 	lookupStabilitySig:mean 	0.93762174594615
scalar Network.dyn_peer[157] 	lookupHopsSig:mean 	27.571428571429
scalar Network.dyn_peer[158] 	lookupTimeSig:mean 	2.475
scalar Network.dyn_peer[158] 	lookupStabilitySig:mean 	0.94123922602739
scalar Network.dyn_peer[158] 	lookupHopsSig:mean 	23.8125
scalar Network.dyn_peer[159] 	lookupTimeSig:mean 	1.8705882352941
scalar Network.dyn_peer[159] 	lookupStabilitySig:mean 	0.9401778247317
scalar Network.dyn_peer[159] 	lookupHopsSig:mean 	17.764705882353
scalar Network.dyn_peer[160] 	lookupTimeSig:mean 	2.3666666666667
scalar Network.dyn_peer[160] 	lookupStabilitySig:mean 	0.93126950634178
scalar Network.dyn_peer[160] 	lookupHopsSig:mean 	22.75
scalar Network.dyn_peer[161] 	lookupTimeSig:mean 	1.2625
scalar Network.dyn_peer[161] 	lookupStabilitySig:mean 	0.92609154182719
scalar Network.dyn_peer[161] 	lookupHopsSig:mean 	11.75
scalar Network.dyn_peer[162] 	lookupTimeSig:mean 	2.3583333333333
scalar Network.dyn_peer[162] 	lookupStabilitySig:mean 	0.91934843768831
scalar Network.dyn_peer[162] 	lookupHopsSig:mean 	22.666666666667
scalar Network.dyn_peer[163] 	lookupTimeSig:mean 	3.2608695652174
scalar Network.dyn_peer[163] 	lookupStabilitySig:mean 	0.96577153123571
scalar Network.dyn_peer[163] 	lookupHopsSig:mean 	31.652173913043
scalar Network.dyn_peer[164] 	lookupTimeSig:mean 	2.2388888888889
scalar Network.dyn_peer[164] 	lookupStabilitySig:mean 	0.95143128491731
scalar Network.dyn_peer[164] 	lookupHopsSig:mean 	21.444444444444
scalar Network.dyn_peer[165] 	lookupTimeSig:mean 	2.285
scalar Network.dyn_peer[165] 	lookupStabilitySig:mean 	0.9588730605552
scalar Network.dyn_peer[165] 	lookupHopsSig:mean 	21.9
scalar Network.dyn_peer[166] 	lookupTimeSig:mean 	2.4368421052632
scalar Network.dyn_peer[166] 	lookupStabilitySig:mean 	0.95881340934552
scalar Network.dyn_peer[166] 	lookupHopsSig:mean 	23.421052631579
scalar Network.dyn_peer[167] 	lookupTimeSig:mean 	1.82
scalar Network.dyn_peer[167] 	lookupStabilitySig:mean 	0.91989985592663
scalar Network.dyn_peer[167] 	lookupHopsSig:mean 	17.3
scalar Network.dyn_peer[168] 	lookupTimeSig:mean 	2.65
scalar Network.dyn_peer[168] 	lookupStabilitySig:mean 	0.93158720790719
scalar Network.dyn_peer[168] 	lookupHopsSig:mean 	25.583333333333
scalar Network.dyn_peer[169] 	lookupTimeSig:mean 	2.5181818181818
scalar Network.dyn_peer[169] 	lookupStabilitySig:mean 	0.93586580819366
scalar Network.dyn_peer[169] 	lookupHopsSig:mean 	24.272727272727
scalar Network.dyn_peer[170] 	lookupTimeSig:mean 	1.7333333333333
scalar Network.dyn_peer[170] 	lookupStabilitySig:mean 	0.92720673704753
scalar Network.dyn_peer[170] 	lookupHopsSig:mean 	16.416666666667
scalar Network.dyn_peer[171] 	lookupTimeSig:mean 	3.1210526315789
scalar Network.dyn_peer[171] 	lookupStabilitySig:mean 	0.94467907702844
scalar Network.dyn_peer[171] 	lookupHopsSig:mean 	30.263157894737
scalar Network.dyn_peer[172] 	lookupTimeSig:mean 	2.5636363636364
scalar Network.dyn_peer[172] 	lookupStabilitySig:mean 	0.96153334091121
scalar Network.dyn_peer[172] 	lookupHopsSig:mean 	24.681818181818
scalar Network.dyn_peer[173] 	lookupTimeSig:mean 	2.2823529411765
scalar Network.dyn_peer[173] 	lookupStabilitySig:mean 	0.94356576990172
scalar Network.dyn_peer[173] 	lookupHopsSig:mean 	21.882352941176
scalar Network.dyn_peer[174] 	lookupTimeSig:mean 	2.8733333333333
scalar Network.dyn_peer[174] 	lookupStabilitySig:mean 	0.93692204154407
scalar Network.dyn_peer[174] 	lookupHopsSig:mean 	27.8
scalar Network.dyn_peer[175] 	lookupTimeSig:mean 	1.9111111111111
scalar Network.dyn_peer[175] 	lookupStabilitySig:mean 	0.94440443601019
scalar Network.dyn_peer[175] 	lookupHopsSig:mean 	18.166666666667
scalar Network.dyn_peer[176] 	lookupTimeSig:mean 	1.05
scalar Network.dyn_peer[176] 	lookupStabilitySig:mean 	0.93979547707325
scalar Network.dyn_peer[176] 	lookupHopsSig:mean 	9.5833333333333
scalar Network.dyn_peer[177] 	lookupTimeSig:mean 	2.8153846153846
scalar Network.dyn_peer[177] 	lookupStabilitySig:mean 	0.93270980874793
scalar Network.dyn_peer[177] 	lookupHopsSig:mean 	27.230769230769
scalar Network.dyn_peer[178] 	lookupTimeSig:mean 	1.81
scalar Network.dyn_peer[178] 	lookupStabilitySig:mean 	0.92102728560567
scalar Network.dyn_peer[178] 	lookupHopsSig:mean 	17.2
scalar Network.dyn_peer[179] 	lookupTimeSig:mean 	2.5470588235294
scalar Network.dyn_peer[179] 	lookupStabilitySig:mean 	0.95857760721735
scalar Network.dyn_peer[179] 	lookupHopsSig:mean 	24.529411764706
scalar Network.dyn_peer[180] 	lookupTimeSig:mean 	2.79
scalar Network.dyn_peer[180] 	lookupStabilitySig:mean 	0.94046054715291
scalar Network.dyn_peer[180] 	lookupHopsSig:mean 	27
scalar Network.dyn_peer[181] 	lookupTimeSig:mean 	3.6142857142857
scalar Network.dyn_peer[181] 	lookupStabilitySig:mean 	0.91037067398429
scalar Network.dyn_peer[181] 	lookupHopsSig:mean 	35.285714285714
scalar Network.dyn_peer[182] 	lookupTimeSig:mean 	2.2454545454545
scalar Network.dyn_peer[182] 	lookupStabilitySig:mean 	0.94805983322757
scalar Network.dyn_peer[182] 	lookupHopsSig:mean 	21.545454545455
scalar Network.dyn_peer[183] 	lookupTimeSig:mean 	1.8866666666667
scalar Network.dyn_peer[183] 	lookupStabilitySig:mean 	0.95358313777639
scalar Network.dyn_peer[183] 	lookupHopsSig:mean 	17.933333333333
scalar Network.dyn_peer[184] 	lookupTimeSig:mean 	2.3727272727273
scalar Network.dyn_peer[184] 	lookupStabilitySig:mean 	0.92888860870153
scalar Network.dyn_peer[184] 	lookupHopsSig:mean 	22.818181818182
scalar Network.dyn_peer[185] 	lookupTimeSig:mean 	2.3071428571429
scalar Network.dyn_peer[185] 	lookupStabilitySig:mean 	0.94363853231438
scalar Network.dyn_peer[185] 	lookupHopsSig:mean 	22.142857142857
scalar Network.dyn_peer[186] 	lookupTimeSig:mean 	2.5133333333333
scalar Network.dyn_peer[186] 	lookupStabilitySig:mean 	0.93852708041668
scalar Network.dyn_peer[186] 	lookupHopsSig:mean 	24.2
scalar Network.dyn_peer[187] 	lookupTimeSig:mean 	1.80625
scalar Network.dyn_peer[187] 	lookupStabilitySig:mean 	0.94970516390458
scalar Network.dyn_peer[187] 	lookupHopsSig:mean 	17.125
scalar Network.dyn_peer[188] 	lookupTimeSig:mean 	2.565
scalar Network.dyn_peer[188] 	lookupStabilitySig:mean 	0.95567631829763
scalar Network.dyn_peer[188] 	lookupHopsSig:mean 	24.7
scalar Network.dyn_peer[189] 	lookupTimeSig:mean 	1.8583333333333
scalar Network.dyn_peer[189] 	lookupStabilitySig:mean 	0.93537432444282
scalar Network.dyn_peer[189] 	lookupHopsSig:mean 	17.666666666667
scalar Network.dyn_peer[190] 	lookupTimeSig:mean 	1.1083333333333
scalar Network.dyn_peer[190] 	lookupStabilitySig:mean 	0.95677649835125
scalar Network.dyn_peer[190] 	lookupHopsSig:mean 	10.166666666667
scalar Network.dyn_peer[191] 	lookupTimeSig:mean 	2.7846153846154
scalar Network.dyn_peer[191] 	lookupStabilitySig:mean 	0.93496093578422
scalar Network.dyn_peer[191] 	lookupHopsSig:mean 	26.923076923077
scalar Network.dyn_peer[192] 	lookupTimeSig:mean 	2.0625
scalar Network.dyn_peer[192] 	lookupStabilitySig:mean 	0.91646058598417
scalar Network.dyn_peer[192] 	lookupHopsSig:mean 	19.75
scalar Network.dyn_peer[193] 	lookupTimeSig:mean 	2.2117647058824
scalar Network.dyn_peer[193] 	lookupStabilitySig:mean 	0.95353496912867
scalar Network.dyn_peer[193] 	lookupHopsSig:mean 	21.176470588235
scalar Network.dyn_peer[194] 	lookupTimeSig:mean 	2.2214285714286
scalar Network.dyn_peer[194] 	lookupStabilitySig:mean 	0.94238094200513
scalar Network.dyn_peer[194] 	lookupHopsSig:mean 	21.285714285714
scalar Network.dyn_peer[195] 	lookupTimeSig:mean 	1.9272727272727
scalar Network.dyn_peer[195] 	lookupStabilitySig:mean 	0.94927680107172
scalar Network.dyn_peer[195] 	lookupHopsSig:mean 	18.363636363636
scalar Network.dyn_peer[196] 	lookupTimeSig:mean 	2.4571428571429
scalar Network.dyn_peer[196] 	lookupStabilitySig:mean 	0.92881080135703
scalar Network.dyn_peer[196] 	lookupHopsSig:mean 	23.714285714286
scalar Network.dyn_peer[197] 	lookupTimeSig:mean 	2.3933333333333
scalar Network.dyn_peer[197] 	lookupStabilitySig:mean 	0.94242289088046
scalar Network.dyn_peer[197] 	lookupHopsSig:mean 	23
scalar Network.dyn_peer[198] 	lookupTimeSig:mean 	3.2555555555556
scalar Network.dyn_peer[198] 	lookupStabilitySig:mean 	0.91720008788009
scalar Network.dyn_peer[198] 	lookupHopsSig:mean 	31.666666666667
scalar Network.dyn_peer[199] 	lookupTimeSig:mean 	1.8916666666667
scalar Network.dyn_peer[199] 	lookupStabilitySig:mean 	0.94535941192104
scalar Network.dyn_peer[199] 	lookupHopsSig:mean 	18
scalar Network.dyn_peer[200] 	lookupTimeSig:mean 	2.2631578947368
scalar Network.dyn_peer[200] 	lookupStabilitySig:mean 	0.96296530278204
scalar Network.dyn_peer[200] 	lookupHopsSig:mean 	21.684210526316
scalar Network.dyn_peer[201] 	lookupTimeSig:mean 	2.0578947368421
scalar Network.dyn_peer[201] 	lookupStabilitySig:mean 	0.96407496492918
scalar Network.dyn_peer[201] 	lookupHopsSig:mean 	19.631578947368
scalar Network.dyn_peer[202] 	lookupTimeSig:mean 	2.50625
scalar Network.dyn_peer[202] 	lookupStabilitySig:mean 	0.95205455139512
scalar Network.dyn_peer[202] 	lookupHopsSig:mean 	24.125
scalar Network.dyn_peer[203] 	lookupTimeSig:mean 	2.64
scalar Network.dyn_peer[203] 	lookupStabilitySig:mean 	0.92766825910658
scalar Network.dyn_peer[203] 	lookupHopsSig:mean 	25.5
scalar Network.dyn_peer[204] 	lookupTimeSig:mean 	2.0153846153846
scalar Network.dyn_peer[204] 	lookupStabilitySig:mean 	0.93900488057317
scalar Network.dyn_peer[204] 	lookupHopsSig:mean 	19.230769230769
scalar Network.dyn_peer[205] 	lookupTimeSig:mean 	2.9875
scalar Network.dyn_peer[205] 	lookupStabilitySig:mean 	0.93753024085891
scalar Network.dyn_peer[205] 	lookupHopsSig:mean 	29
scalar Network.dyn_peer[206] 	lookupTimeSig:mean 	2.7260869565217
scalar Network.dyn_peer[206] 	lookupStabilitySig:mean 	0.9624686740521
scalar Network.dyn_peer[206] 	lookupHopsSig:mean 	26.304347826087
scalar Network.dyn_peer[207] 	lookupTimeSig:mean 	2.8952380952381
scalar Network.dyn_peer[207] 	lookupStabilitySig:mean 	0.9631083903812
scalar Network.dyn_peer[207] 	lookupHopsSig:mean 	28
scalar Network.dyn_peer[208] 	lookupTimeSig:mean 	3.1818181818182
scalar Network.dyn_peer[208] 	lookupStabilitySig:mean 	0.93714780055664
scalar Network.dyn_peer[208] 	lookupHopsSig:mean 	30.909090909091
scalar Network.dyn_peer[209] 	lookupTimeSig:mean 	2.2588235294118
scalar Network.dyn_peer[209] 	lookupStabilitySig:mean 	0.94608251594336
scalar Network.dyn_peer[209] 	lookupHopsSig:mean 	21.647058823529
scalar Network.dyn_peer[210] 	lookupTimeSig:mean 	3.1083333333333
scalar Network.dyn_peer[210] 	lookupStabilitySig:mean 	0.93437333187709
scalar Network.dyn_peer[210] 	lookupHopsSig:mean 	30.166666666667
scalar Network.dyn_peer[211] 	lookupTimeSig:mean 	2.9066666666667
scalar Network.dyn_peer[211] 	lookupStabilitySig:mean 	0.95025119986385
scalar Network.dyn_peer[211] 	lookupHopsSig:mean 	28.133333333333
scalar Network.dyn_peer[212] 	lookupTimeSig:mean 	1.7222222222222
scalar Network.dyn_peer[212] 	lookupStabilitySig:mean 	0.95973377707156
scalar Network.dyn_peer[212] 	lookupHopsSig:mean 	16.277777777778
scalar Network.dyn_peer[213] 	lookupTimeSig:mean 	2.5428571428571
scalar Network.dyn_peer[213] 	lookupStabilitySig:mean 	0.95097293086084
scalar Network.dyn_peer[213] 	lookupHopsSig:mean 	24.5
scalar Network.dyn_peer[214] 	lookupTimeSig:mean 	2.32
scalar Network.dyn_peer[214] 	lookupStabilitySig:mean 	0.95027239145711
scalar Network.dyn_peer[214] 	lookupHopsSig:mean 	22.266666666667
scalar Network.dyn_peer[215] 	lookupTimeSig:mean 	1.9272727272727
scalar Network.dyn_peer[215] 	lookupStabilitySig:mean 	0.93703642639924
scalar Network.dyn_peer[215] 	lookupHopsSig:mean 	18.363636363636
scalar Network.dyn_peer[216] 	lookupTimeSig:mean 	2.58
scalar Network.dyn_peer[216] 	lookupStabilitySig:mean 	0.94561501207451
scalar Network.dyn_peer[216] 	lookupHopsSig:mean 	24.866666666667
scalar Network.dyn_peer[217] 	lookupTimeSig:mean 	2.325
scalar Network.dyn_peer[217] 	lookupStabilitySig:mean 	0.95749794875737
scalar Network.dyn_peer[217] 	lookupHopsSig:mean 	22.3
scalar Network.dyn_peer[218] 	lookupTimeSig:mean 	2.8375
scalar Network.dyn_peer[218] 	lookupStabilitySig:mean 	0.96041340011288
scalar Network.dyn_peer[218] 	lookupHopsSig:mean 	27.4375
scalar Network.dyn_peer[219] 	lookupTimeSig:mean 	2.4
scalar Network.dyn_peer[219] 	lookupStabilitySig:mean 	0.94752649443511
scalar Network.dyn_peer[219] 	lookupHopsSig:mean 	23.076923076923
scalar Network.dyn_peer[220] 	lookupTimeSig:mean 	1.9882352941176
scalar Network.dyn_peer[220] 	lookupStabilitySig:mean 	0.95385203199625
scalar Network.dyn_peer[220] 	lookupHopsSig:mean 	18.941176470588
scalar Network.dyn_peer[221] 	lookupTimeSig:mean 	2.5428571428571
scalar Network.dyn_peer[221] 	lookupStabilitySig:mean 	0.9541886327123
scalar Network.dyn_peer[221] 	lookupHopsSig:mean 	24.5
scalar Network.dyn_peer[222] 	lookupTimeSig:mean 	2.6666666666667
scalar Network.dyn_peer[222] 	lookupStabilitySig:mean 	0.89612782032539
scalar Network.dyn_peer[222] 	lookupHopsSig:mean 	25.833333333333
scalar Network.dyn_peer[223] 	lookupTimeSig:mean 	2.44
scalar Network.dyn_peer[223] 	lookupStabilitySig:mean 	0.95147655660597
scalar Network.dyn_peer[223] 	lookupHopsSig:mean 	23.466666666667
scalar Network.dyn_peer[224] 	lookupTimeSig:mean 	2.7611111111111
scalar Network.dyn_peer[224] 	lookupStabilitySig:mean 	0.95407607517619
scalar Network.dyn_peer[224] 	lookupHopsSig:mean 	26.666666666667
scalar Network.dyn_peer[225] 	lookupTimeSig:mean 	1.9066666666667
scalar Network.dyn_peer[225] 	lookupStabilitySig:mean 	0.95144380639928
scalar Network.dyn_peer[225] 	lookupHopsSig:mean 	18.133333333333
scalar Network.dyn_peer[226] 	lookupTimeSig:mean 	3.2857142857143
scalar Network.dyn_peer[226] 	lookupStabilitySig:mean 	0.90777819683509
scalar Network.dyn_peer[226] 	lookupHopsSig:mean 	32
scalar Network.dyn_peer[227] 	lookupTimeSig:mean 	2.6428571428571
scalar Network.dyn_peer[227] 	lookupStabilitySig:mean 	0.94205970669697
scalar Network.dyn_peer[227] 	lookupHopsSig:mean 	25.5
scalar Network.dyn_peer[228] 	lookupTimeSig:mean 	2.7705882352941
scalar Network.dyn_peer[228] 	lookupStabilitySig:mean 	0.96050946033724
scalar Network.dyn_peer[228] 	lookupHopsSig:mean 	26.764705882353
scalar Network.dyn_peer[229] 	lookupTimeSig:mean 	1.87
scalar Network.dyn_peer[229] 	lookupStabilitySig:mean 	0.95149314762093
scalar Network.dyn_peer[229] 	lookupHopsSig:mean 	17.8
scalar Network.dyn_peer[230] 	lookupTimeSig:mean 	2.6642857142857
scalar Network.dyn_peer[230] 	lookupStabilitySig:mean 	0.95275876145544
scalar Network.dyn_peer[230] 	lookupHopsSig:mean 	25.714285714286
scalar Network.dyn_peer[231] 	lookupTimeSig:mean 	2.3928571428571
scalar Network.dyn_peer[231] 	lookupStabilitySig:mean 	0.94468044206899
scalar Network.dyn_peer[231] 	lookupHopsSig:mean 	23
scalar Network.dyn_peer[232] 	lookupTimeSig:mean 	3.2454545454545
scalar Network.dyn_peer[232] 	lookupStabilitySig:mean 	0.94221755049445
scalar Network.dyn_peer[232] 	lookupHopsSig:mean 	31.545454545455
scalar Network.dyn_peer[233] 	lookupTimeSig:mean 	2.0545454545455
scalar Network.dyn_peer[233] 	lookupStabilitySig:mean 	0.96035671183331
scalar Network.dyn_peer[233] 	lookupHopsSig:mean 	19.590909090909
scalar Network.dyn_peer[234] 	lookupTimeSig:mean 	1.8727272727273
scalar Network.dyn_peer[234] 	lookupStabilitySig:mean 	0.94569686986506
scalar Network.dyn_peer[234] 	lookupHopsSig:mean 	17.818181818182
scalar Network.dyn_peer[235] 	lookupTimeSig:mean 	2.7454545454545
scalar Network.dyn_peer[235] 	lookupStabilitySig:mean 	0.93678134489297
scalar Network.dyn_peer[235] 	lookupHopsSig:mean 	26.545454545455
scalar Network.dyn_peer[236] 	lookupTimeSig:mean 	2.4909090909091
scalar Network.dyn_peer[236] 	lookupStabilitySig:mean 	0.95476619814607
scalar Network.dyn_peer[236] 	lookupHopsSig:mean 	24
scalar Network.dyn_peer[237] 	lookupTimeSig:mean 	1.4666666666667
scalar Network.dyn_peer[237] 	lookupStabilitySig:mean 	0.86558880408605
scalar Network.dyn_peer[237] 	lookupHopsSig:mean 	14
scalar Network.dyn_peer[238] 	lookupTimeSig:mean 	2.4692307692308
scalar Network.dyn_peer[238] 	lookupStabilitySig:mean 	0.95441813100702
scalar Network.dyn_peer[238] 	lookupHopsSig:mean 	23.769230769231
scalar Network.dyn_peer[239] 	lookupTimeSig:mean 	2.3933333333333
scalar Network.dyn_peer[239] 	lookupStabilitySig:mean 	0.9542207534425
scalar Network.dyn_peer[239] 	lookupHopsSig:mean 	23
scalar Network.dyn_peer[240] 	lookupTimeSig:mean 	3.6666666666667
scalar Network.dyn_peer[240] 	lookupStabilitySig:mean 	0.93983058767238
scalar Network.dyn_peer[240] 	lookupHopsSig:mean 	35.75
scalar Network.dyn_peer[241] 	lookupTimeSig:mean 	2.9384615384615
scalar Network.dyn_peer[241] 	lookupStabilitySig:mean 	0.95144345625662
scalar Network.dyn_peer[241] 	lookupHopsSig:mean 	28.461538461538
scalar Network.dyn_peer[242] 	lookupTimeSig:mean 	2.6454545454545
scalar Network.dyn_peer[242] 	lookupStabilitySig:mean 	0.94142386926846
scalar Network.dyn_peer[242] 	lookupHopsSig:mean 	25.545454545455
scalar Network.dyn_peer[243] 	lookupTimeSig:mean 	1.6714285714286
scalar Network.dyn_peer[243] 	lookupStabilitySig:mean 	0.93741251501654
scalar Network.dyn_peer[243] 	lookupHopsSig:mean 	15.857142857143
scalar Network.dyn_peer[244] 	lookupTimeSig:mean 	1.9894736842105
scalar Network.dyn_peer[244] 	lookupStabilitySig:mean 	0.96634555165043
scalar Network.dyn_peer[244] 	lookupHopsSig:mean 	18.947368421053
scalar Network.dyn_peer[245] 	lookupTimeSig:mean 	2.98125
scalar Network.dyn_peer[245] 	lookupStabilitySig:mean 	0.95365225785645
scalar Network.dyn_peer[245] 	lookupHopsSig:mean 	28.875
scalar Network.dyn_peer[246] 	lookupTimeSig:mean 	2.23125
scalar Network.dyn_peer[246] 	lookupStabilitySig:mean 	0.95782141375821
scalar Network.dyn_peer[246] 	lookupHopsSig:mean 	21.375
scalar Network.dyn_peer[247] 	lookupTimeSig:mean 	2.7666666666667
scalar Network.dyn_peer[247] 	lookupStabilitySig:mean 	0.93861218014111
scalar Network.dyn_peer[247] 	lookupHopsSig:mean 	26.75
scalar Network.dyn_peer[248] 	lookupTimeSig:mean 	2.85
scalar Network.dyn_peer[248] 	lookupStabilitySig:mean 	0.95508534231755
scalar Network.dyn_peer[248] 	lookupHopsSig:mean 	27.571428571429
scalar Network.dyn_peer[249] 	lookupTimeSig:mean 	2.0913043478261
scalar Network.dyn_peer[249] 	lookupStabilitySig:mean 	0.96964597660522
scalar Network.dyn_peer[249] 	lookupHopsSig:mean 	19.95652173913
scalar Network.dyn_peer[250] 	lookupTimeSig:mean 	2.1
scalar Network.dyn_peer[250] 	lookupStabilitySig:mean 	0.95513376977076
scalar Network.dyn_peer[250] 	lookupHopsSig:mean 	20.058823529412
scalar Network.dyn_peer[251] 	lookupTimeSig:mean 	2.825
scalar Network.dyn_peer[251] 	lookupStabilitySig:mean 	0.95592861792829
scalar Network.dyn_peer[251] 	lookupHopsSig:mean 	27.3125
scalar Network.dyn_peer[252] 	lookupTimeSig:mean 	2.6055555555556
scalar Network.dyn_peer[252] 	lookupStabilitySig:mean 	0.96633038791414
scalar Network.dyn_peer[252] 	lookupHopsSig:mean 	25.111111111111
scalar Network.dyn_peer[253] 	lookupTimeSig:mean 	3.325
scalar Network.dyn_peer[253] 	lookupStabilitySig:mean 	0.92791346414015
scalar Network.dyn_peer[253] 	lookupHopsSig:mean 	32.375
scalar Network.dyn_peer[254] 	lookupTimeSig:mean 	3.1538461538462
scalar Network.dyn_peer[254] 	lookupStabilitySig:mean 	0.9526206668323
scalar Network.dyn_peer[254] 	lookupHopsSig:mean 	30.615384615385
scalar Network.dyn_peer[255] 	lookupTimeSig:mean 	2.2285714285714
scalar Network.dyn_peer[255] 	lookupStabilitySig:mean 	0.9533686802024
scalar Network.dyn_peer[255] 	lookupHopsSig:mean 	21.357142857143
scalar Network.dyn_peer[256] 	lookupTimeSig:mean 	3.375
scalar Network.dyn_peer[256] 	lookupStabilitySig:mean 	0.91960068978369
scalar Network.dyn_peer[256] 	lookupHopsSig:mean 	32.875
scalar Network.dyn_peer[257] 	lookupTimeSig:mean 	2.0538461538462
scalar Network.dyn_peer[257] 	lookupStabilitySig:mean 	0.95004307310312
scalar Network.dyn_peer[257] 	lookupHopsSig:mean 	19.615384615385
scalar Network.dyn_peer[258] 	lookupTimeSig:mean 	2.875
scalar Network.dyn_peer[258] 	lookupStabilitySig:mean 	0.96772621921264
scalar Network.dyn_peer[258] 	lookupHopsSig:mean 	27.8
scalar Network.dyn_peer[259] 	lookupTimeSig:mean 	2.2333333333333
scalar Network.dyn_peer[259] 	lookupStabilitySig:mean 	0.93559352122247
scalar Network.dyn_peer[259] 	lookupHopsSig:mean 	21.444444444444
scalar Network.dyn_peer[260] 	lookupTimeSig:mean 	2.6294117647059
scalar Network.dyn_peer[260] 	lookupStabilitySig:mean 	0.95585539597361
scalar Network.dyn_peer[260] 	lookupHopsSig:mean 	25.352941176471
scalar Network.dyn_peer[261] 	lookupTimeSig:mean 	2.1454545454545
scalar Network.dyn_peer[261] 	lookupStabilitySig:mean 	0.9520582487722
scalar Network.dyn_peer[261] 	lookupHopsSig:mean 	20.545454545455
scalar Network.dyn_peer[262] 	lookupTimeSig:mean 	1.9352941176471
scalar Network.dyn_peer[262] 	lookupStabilitySig:mean 	0.95707697310375
scalar Network.dyn_peer[262] 	lookupHopsSig:mean 	18.411764705882
scalar Network.dyn_peer[263] 	lookupTimeSig:mean 	2.4611111111111
scalar Network.dyn_peer[263] 	lookupStabilitySig:mean 	0.96876473732603
scalar Network.dyn_peer[263] 	lookupHopsSig:mean 	23.666666666667
scalar Network.dyn_peer[264] 	lookupTimeSig:mean 	3.5
scalar Network.dyn_peer[264] 	lookupStabilitySig:mean 	0.93216215686074
scalar Network.dyn_peer[264] 	lookupHopsSig:mean 	34.142857142857
scalar Network.dyn_peer[265] 	lookupTimeSig:mean 	1.74
scalar Network.dyn_peer[265] 	lookupStabilitySig:mean 	0.96028474429622
scalar Network.dyn_peer[265] 	lookupHopsSig:mean 	16.5
scalar Network.dyn_peer[266] 	lookupTimeSig:mean 	1.7058823529412
scalar Network.dyn_peer[266] 	lookupStabilitySig:mean 	0.95781602384523
scalar Network.dyn_peer[266] 	lookupHopsSig:mean 	16.117647058824
scalar Network.dyn_peer[267] 	lookupTimeSig:mean 	2.5133333333333
scalar Network.dyn_peer[267] 	lookupStabilitySig:mean 	0.9558332678241
scalar Network.dyn_peer[267] 	lookupHopsSig:mean 	24.2
scalar Network.dyn_peer[268] 	lookupTimeSig:mean 	2.6357142857143
scalar Network.dyn_peer[268] 	lookupStabilitySig:mean 	0.95017385183434
scalar Network.dyn_peer[268] 	lookupHopsSig:mean 	25.428571428571
scalar Network.dyn_peer[269] 	lookupTimeSig:mean 	2.7434782608696
scalar Network.dyn_peer[269] 	lookupStabilitySig:mean 	0.96838671395697
scalar Network.dyn_peer[269] 	lookupHopsSig:mean 	26.478260869565
scalar Network.dyn_peer[270] 	lookupTimeSig:mean 	2.44
scalar Network.dyn_peer[270] 	lookupStabilitySig:mean 	0.95132332767049
scalar Network.dyn_peer[270] 	lookupHopsSig:mean 	23.466666666667
scalar Network.dyn_peer[271] 	lookupTimeSig:mean 	1.76
scalar Network.dyn_peer[271] 	lookupStabilitySig:mean 	0.96281649230514
scalar Network.dyn_peer[271] 	lookupHopsSig:mean 	16.65
scalar Network.dyn_peer[272] 	lookupTimeSig:mean 	0.98333333333333
scalar Network.dyn_peer[272] 	lookupStabilitySig:mean 	0.92434697784483
scalar Network.dyn_peer[272] 	lookupHopsSig:mean 	9
scalar Network.dyn_peer[273] 	lookupTimeSig:mean 	2.4428571428571
scalar Network.dyn_peer[273] 	lookupStabilitySig:mean 	0.93982660238232
scalar Network.dyn_peer[273] 	lookupHopsSig:mean 	23.571428571429
scalar Network.dyn_peer[274] 	lookupTimeSig:mean 	2.1888888888889
scalar Network.dyn_peer[274] 	lookupStabilitySig:mean 	0.94364202814177
scalar Network.dyn_peer[274] 	lookupHopsSig:mean 	21
scalar Network.dyn_peer[275] 	lookupTimeSig:mean 	1.88
scalar Network.dyn_peer[275] 	lookupStabilitySig:mean 	0.94102498628199
scalar Network.dyn_peer[275] 	lookupHopsSig:mean 	17.9
scalar Network.dyn_peer[276] 	lookupTimeSig:mean 	1.52
scalar Network.dyn_peer[276] 	lookupStabilitySig:mean 	0.94430874465033
scalar Network.dyn_peer[276] 	lookupHopsSig:mean 	14.3
scalar Network.dyn_peer[277] 	lookupTimeSig:mean 	3.0941176470588
scalar Network.dyn_peer[277] 	lookupStabilitySig:mean 	0.96027716686812
scalar Network.dyn_peer[277] 	lookupHopsSig:mean 	30
scalar Network.dyn_peer[278] 	lookupTimeSig:mean 	3.76
scalar Network.dyn_peer[278] 	lookupStabilitySig:mean 	0.93260408202186
scalar Network.dyn_peer[278] 	lookupHopsSig:mean 	36.7
scalar Network.dyn_peer[279] 	lookupTimeSig:mean 	1.9625
scalar Network.dyn_peer[279] 	lookupStabilitySig:mean 	0.96074865729315
scalar Network.dyn_peer[279] 	lookupHopsSig:mean 	18.6875
scalar Network.dyn_peer[280] 	lookupTimeSig:mean 	1.6166666666667
scalar Network.dyn_peer[280] 	lookupStabilitySig:mean 	0.95064269603851
scalar Network.dyn_peer[280] 	lookupHopsSig:mean 	15.25
scalar Network.dyn_peer[281] 	lookupTimeSig:mean 	2.2
scalar Network.dyn_peer[281] 	lookupStabilitySig:mean 	0.95464874537928
scalar Network.dyn_peer[281] 	lookupHopsSig:mean 	21.071428571429
scalar Network.dyn_peer[282] 	lookupTimeSig:mean 	2.3277777777778
scalar Network.dyn_peer[282] 	lookupStabilitySig:mean 	0.96343107358553
scalar Network.dyn_peer[282] 	lookupHopsSig:mean 	22.333333333333
scalar Network.dyn_peer[283] 	lookupTimeSig:mean 	2.21
scalar Network.dyn_peer[283] 	lookupStabilitySig:mean 	0.94644763693213
scalar Network.dyn_peer[283] 	lookupHopsSig:mean 	21.2
scalar Network.dyn_peer[284] 	lookupTimeSig:mean 	2.0785714285714
scalar Network.dyn_peer[284] 	lookupStabilitySig:mean 	0.95134250869575
scalar Network.dyn_peer[284] 	lookupHopsSig:mean 	19.857142857143
scalar Network.dyn_peer[285] 	lookupTimeSig:mean 	2.7733333333333
scalar Network.dyn_peer[285] 	lookupStabilitySig:mean 	0.96459169232597
scalar Network.dyn_peer[285] 	lookupHopsSig:mean 	26.8
scalar Network.dyn_peer[286] 	lookupTimeSig:mean 	2.5461538461538
scalar Network.dyn_peer[286] 	lookupStabilitySig:mean 	0.9493023104106
scalar Network.dyn_peer[286] 	lookupHopsSig:mean 	24.538461538462
scalar Network.dyn_peer[287] 	lookupTimeSig:mean 	2.35
scalar Network.dyn_peer[287] 	lookupStabilitySig:mean 	0.94643507195481
scalar Network.dyn_peer[287] 	lookupHopsSig:mean 	22.583333333333
scalar Network.dyn_peer[288] 	lookupTimeSig:mean 	2.2
scalar Network.dyn_peer[288] 	lookupStabilitySig:mean 	0.96582302747161
scalar Network.dyn_peer[288] 	lookupHopsSig:mean 	21.047619047619
scalar Network.dyn_peer[289] 	lookupTimeSig:mean 	2.4428571428571
scalar Network.dyn_peer[289] 	lookupStabilitySig:mean 	0.95857359462285
scalar Network.dyn_peer[289] 	lookupHopsSig:mean 	23.5
scalar Network.dyn_peer[290] 	lookupTimeSig:mean 	2.5090909090909
scalar Network.dyn_peer[290] 	lookupStabilitySig:mean 	0.95704244377769
scalar Network.dyn_peer[290] 	lookupHopsSig:mean 	24.181818181818
scalar Network.dyn_peer[291] 	lookupTimeSig:mean 	1.945
scalar Network.dyn_peer[291] 	lookupStabilitySig:mean 	0.9660474097007
scalar Network.dyn_peer[291] 	lookupHopsSig:mean 	18.5
scalar Network.dyn_peer[292] 	lookupTimeSig:mean 	2.02
scalar Network.dyn_peer[292] 	lookupStabilitySig:mean 	0.96365967191135
scalar Network.dyn_peer[292] 	lookupHopsSig:mean 	19.266666666667
scalar Network.dyn_peer[293] 	lookupTimeSig:mean 	2.3846153846154
scalar Network.dyn_peer[293] 	lookupStabilitySig:mean 	0.95568239259032
scalar Network.dyn_peer[293] 	lookupHopsSig:mean 	22.923076923077
scalar Network.dyn_peer[294] 	lookupTimeSig:mean 	2.3307692307692
scalar Network.dyn_peer[294] 	lookupStabilitySig:mean 	0.95961713273293
scalar Network.dyn_peer[294] 	lookupHopsSig:mean 	22.384615384615
scalar Network.dyn_peer[295] 	lookupTimeSig:mean 	1.8736842105263
scalar Network.dyn_peer[295] 	lookupStabilitySig:mean 	0.96483243392829
scalar Network.dyn_peer[295] 	lookupHopsSig:mean 	17.789473684211
scalar Network.dyn_peer[296] 	lookupTimeSig:mean 	2.0681818181818
scalar Network.dyn_peer[296] 	lookupStabilitySig:mean 	0.97227311312136
scalar Network.dyn_peer[296] 	lookupHopsSig:mean 	19.727272727273
scalar Network.dyn_peer[297] 	lookupTimeSig:mean 	2.4454545454545
scalar Network.dyn_peer[297] 	lookupStabilitySig:mean 	0.9408185988326
scalar Network.dyn_peer[297] 	lookupHopsSig:mean 	23.545454545455
scalar Network.dyn_peer[298] 	lookupTimeSig:mean 	1.4375
scalar Network.dyn_peer[298] 	lookupStabilitySig:mean 	0.94507386087207
scalar Network.dyn_peer[298] 	lookupHopsSig:mean 	13.5
scalar Network.dyn_peer[299] 	lookupTimeSig:mean 	2.25
scalar Network.dyn_peer[299] 	lookupStabilitySig:mean 	0.95386855989428
scalar Network.dyn_peer[299] 	lookupHopsSig:mean 	21.571428571429
scalar Network.dyn_peer[300] 	lookupTimeSig:mean 	2.1
scalar Network.dyn_peer[300] 	lookupStabilitySig:mean 	0.96207075546772
scalar Network.dyn_peer[300] 	lookupHopsSig:mean 	20.0625
scalar Network.dyn_peer[301] 	lookupTimeSig:mean 	2.0666666666667
scalar Network.dyn_peer[301] 	lookupStabilitySig:mean 	0.96622609294071
scalar Network.dyn_peer[301] 	lookupHopsSig:mean 	19.722222222222
scalar Network.dyn_peer[302] 	lookupTimeSig:mean 	2.35
scalar Network.dyn_peer[302] 	lookupStabilitySig:mean 	0.96305055217817
scalar Network.dyn_peer[302] 	lookupHopsSig:mean 	22.571428571429
scalar Network.dyn_peer[303] 	lookupTimeSig:mean 	3.1133333333333
scalar Network.dyn_peer[303] 	lookupStabilitySig:mean 	0.95686878353978
scalar Network.dyn_peer[303] 	lookupHopsSig:mean 	30.2
scalar Network.dyn_peer[304] 	lookupTimeSig:mean 	2.8181818181818
scalar Network.dyn_peer[304] 	lookupStabilitySig:mean 	0.95931028727103
scalar Network.dyn_peer[304] 	lookupHopsSig:mean 	27.272727272727
scalar Network.dyn_peer[305] 	lookupTimeSig:mean 	3.9625
scalar Network.dyn_peer[305] 	lookupStabilitySig:mean 	0.93593022148707
scalar Network.dyn_peer[305] 	lookupHopsSig:mean 	38.75
scalar Network.dyn_peer[306] 	lookupTimeSig:mean 	3.23
scalar Network.dyn_peer[306] 	lookupStabilitySig:mean 	0.94144048746675
scalar Network.dyn_peer[306] 	lookupHopsSig:mean 	31.4
scalar Network.dyn_peer[307] 	lookupTimeSig:mean 	1.8307692307692
scalar Network.dyn_peer[307] 	lookupStabilitySig:mean 	0.96377594051704
scalar Network.dyn_peer[307] 	lookupHopsSig:mean 	17.384615384615
scalar Network.dyn_peer[308] 	lookupTimeSig:mean 	2.0176470588235
scalar Network.dyn_peer[308] 	lookupStabilitySig:mean 	0.96425786222715
scalar Network.dyn_peer[308] 	lookupHopsSig:mean 	19.235294117647
scalar Network.dyn_peer[309] 	lookupTimeSig:mean 	1.3428571428571
scalar Network.dyn_peer[309] 	lookupStabilitySig:mean 	0.94937923444169
scalar Network.dyn_peer[309] 	lookupHopsSig:mean 	12.571428571429
scalar Network.dyn_peer[310] 	lookupTimeSig:mean 	2.6363636363636
scalar Network.dyn_peer[310] 	lookupStabilitySig:mean 	0.9646611683367
scalar Network.dyn_peer[310] 	lookupHopsSig:mean 	25.454545454545
scalar Network.dyn_peer[311] 	lookupTimeSig:mean 	1.2333333333333
scalar Network.dyn_peer[311] 	lookupStabilitySig:mean 	0.90172261248032
scalar Network.dyn_peer[311] 	lookupHopsSig:mean 	11.666666666667
scalar Network.dyn_peer[312] 	lookupTimeSig:mean 	2.6777777777778
scalar Network.dyn_peer[312] 	lookupStabilitySig:mean 	0.96723455819301
scalar Network.dyn_peer[312] 	lookupHopsSig:mean 	25.833333333333
scalar Network.dyn_peer[313] 	lookupTimeSig:mean 	3.2181818181818
scalar Network.dyn_peer[313] 	lookupStabilitySig:mean 	0.94569569402798
scalar Network.dyn_peer[313] 	lookupHopsSig:mean 	31.272727272727
scalar Network.dyn_peer[314] 	lookupTimeSig:mean 	2.6086956521739
scalar Network.dyn_peer[314] 	lookupStabilitySig:mean 	0.97385412977968
scalar Network.dyn_peer[314] 	lookupHopsSig:mean 	25.130434782609
scalar Network.dyn_peer[315] 	lookupTimeSig:mean 	3.9833333333333
scalar Network.dyn_peer[315] 	lookupStabilitySig:mean 	0.96135685783035
scalar Network.dyn_peer[315] 	lookupHopsSig:mean 	38.916666666667
scalar Network.dyn_peer[316] 	lookupTimeSig:mean 	3.1733333333333
scalar Network.dyn_peer[316] 	lookupStabilitySig:mean 	0.95734426540633
scalar Network.dyn_peer[316] 	lookupHopsSig:mean 	30.8
scalar Network.dyn_peer[317] 	lookupTimeSig:mean 	2.1
scalar Network.dyn_peer[317] 	lookupStabilitySig:mean 	0.95940802093329
scalar Network.dyn_peer[317] 	lookupHopsSig:mean 	20.071428571429
scalar Network.dyn_peer[318] 	lookupTimeSig:mean 	2.86
scalar Network.dyn_peer[318] 	lookupStabilitySig:mean 	0.95941979829222
scalar Network.dyn_peer[318] 	lookupHopsSig:mean 	27.666666666667
scalar Network.dyn_peer[319] 	lookupTimeSig:mean 	2.0125
scalar Network.dyn_peer[319] 	lookupStabilitySig:mean 	0.97236649912278
scalar Network.dyn_peer[319] 	lookupHopsSig:mean 	19.166666666667
scalar Network.dyn_peer[320] 	lookupTimeSig:mean 	2.5583333333333
scalar Network.dyn_peer[320] 	lookupStabilitySig:mean 	0.95810451044235
scalar Network.dyn_peer[320] 	lookupHopsSig:mean 	24.666666666667
scalar Network.dyn_peer[321] 	lookupTimeSig:mean 	1.9666666666667
scalar Network.dyn_peer[321] 	lookupStabilitySig:mean 	0.95717655432721
scalar Network.dyn_peer[321] 	lookupHopsSig:mean 	18.833333333333
scalar Network.dyn_peer[322] 	lookupTimeSig:mean 	2.4533333333333
scalar Network.dyn_peer[322] 	lookupStabilitySig:mean 	0.96449871820708
scalar Network.dyn_peer[322] 	lookupHopsSig:mean 	23.6
scalar Network.dyn_peer[323] 	lookupTimeSig:mean 	2.2782608695652
scalar Network.dyn_peer[323] 	lookupStabilitySig:mean 	0.97174018526288
scalar Network.dyn_peer[323] 	lookupHopsSig:mean 	21.826086956522
scalar Network.dyn_peer[324] 	lookupTimeSig:mean 	2.72
scalar Network.dyn_peer[324] 	lookupStabilitySig:mean 	0.9398942405358
scalar Network.dyn_peer[324] 	lookupHopsSig:mean 	26.3
scalar Network.dyn_peer[325] 	lookupTimeSig:mean 	2.4909090909091
scalar Network.dyn_peer[325] 	lookupStabilitySig:mean 	0.97076531854162
scalar Network.dyn_peer[325] 	lookupHopsSig:mean 	23.954545454545
scalar Network.dyn_peer[326] 	lookupTimeSig:mean 	2.4166666666667
scalar Network.dyn_peer[326] 	lookupStabilitySig:mean 	0.96288995729345
scalar Network.dyn_peer[326] 	lookupHopsSig:mean 	23.222222222222
scalar Network.dyn_peer[327] 	lookupTimeSig:mean 	2.0666666666667
scalar Network.dyn_peer[327] 	lookupStabilitySig:mean 	0.91988189394275
scalar Network.dyn_peer[327] 	lookupHopsSig:mean 	19.833333333333
scalar Network.dyn_peer[328] 	lookupTimeSig:mean 	2.34
scalar Network.dyn_peer[328] 	lookupStabilitySig:mean 	0.95262672859244
scalar Network.dyn_peer[328] 	lookupHopsSig:mean 	22.5
scalar Network.dyn_peer[329] 	lookupTimeSig:mean 	3.0285714285714
scalar Network.dyn_peer[329] 	lookupStabilitySig:mean 	0.94630344385015
scalar Network.dyn_peer[329] 	lookupHopsSig:mean 	29.428571428571
scalar Network.dyn_peer[330] 	lookupTimeSig:mean 	2.8333333333333
scalar Network.dyn_peer[330] 	lookupStabilitySig:mean 	0.9619760690257
scalar Network.dyn_peer[330] 	lookupHopsSig:mean 	27.5
scalar Network.dyn_peer[331] 	lookupTimeSig:mean 	3.1133333333333
scalar Network.dyn_peer[331] 	lookupStabilitySig:mean 	0.95978909190744
scalar Network.dyn_peer[331] 	lookupHopsSig:mean 	30.2
scalar Network.dyn_peer[332] 	lookupTimeSig:mean 	2.9181818181818
scalar Network.dyn_peer[332] 	lookupStabilitySig:mean 	0.95558498114009
scalar Network.dyn_peer[332] 	lookupHopsSig:mean 	28.272727272727
scalar Network.dyn_peer[333] 	lookupTimeSig:mean 	1.975
scalar Network.dyn_peer[333] 	lookupStabilitySig:mean 	0.91026253486052
scalar Network.dyn_peer[333] 	lookupHopsSig:mean 	19
scalar Network.dyn_peer[334] 	lookupTimeSig:mean 	2.9588235294118
scalar Network.dyn_peer[334] 	lookupStabilitySig:mean 	0.96312013988876
scalar Network.dyn_peer[334] 	lookupHopsSig:mean 	28.647058823529
scalar Network.dyn_peer[335] 	lookupTimeSig:mean 	2.0130434782609
scalar Network.dyn_peer[335] 	lookupStabilitySig:mean 	0.97088913114377
scalar Network.dyn_peer[335] 	lookupHopsSig:mean 	19.173913043478
scalar Network.dyn_peer[336] 	lookupTimeSig:mean 	1.8727272727273
scalar Network.dyn_peer[336] 	lookupStabilitySig:mean 	0.96013413781343
scalar Network.dyn_peer[336] 	lookupHopsSig:mean 	17.818181818182
scalar Network.dyn_peer[337] 	lookupTimeSig:mean 	2.6
scalar Network.dyn_peer[337] 	lookupStabilitySig:mean 	0.95131559705792
scalar Network.dyn_peer[337] 	lookupHopsSig:mean 	25.076923076923
scalar Network.dyn_peer[338] 	lookupTimeSig:mean 	2.0090909090909
scalar Network.dyn_peer[338] 	lookupStabilitySig:mean 	0.95703200966289
scalar Network.dyn_peer[338] 	lookupHopsSig:mean 	19.181818181818
scalar Network.dyn_peer[339] 	lookupTimeSig:mean 	4.025
scalar Network.dyn_peer[339] 	lookupStabilitySig:mean 	0.93032987043262
scalar Network.dyn_peer[339] 	lookupHopsSig:mean 	39.375
scalar Network.dyn_peer[340] 	lookupTimeSig:mean 	2.2416666666667
scalar Network.dyn_peer[340] 	lookupStabilitySig:mean 	0.9523496478796
scalar Network.dyn_peer[340] 	lookupHopsSig:mean 	21.5
scalar Network.dyn_peer[341] 	lookupTimeSig:mean 	2.4416666666667
scalar Network.dyn_peer[341] 	lookupStabilitySig:mean 	0.95128403572987
scalar Network.dyn_peer[341] 	lookupHopsSig:mean 	23.5
scalar Network.dyn_peer[342] 	lookupTimeSig:mean 	2.2769230769231
scalar Network.dyn_peer[342] 	lookupStabilitySig:mean 	0.9610028912564
scalar Network.dyn_peer[342] 	lookupHopsSig:mean 	21.846153846154
scalar Network.dyn_peer[343] 	lookupTimeSig:mean 	1.7818181818182
scalar Network.dyn_peer[343] 	lookupStabilitySig:mean 	0.965633953477
scalar Network.dyn_peer[343] 	lookupHopsSig:mean 	16.909090909091
scalar Network.dyn_peer[344] 	lookupTimeSig:mean 	2.4153846153846
scalar Network.dyn_peer[344] 	lookupStabilitySig:mean 	0.95976839682016
scalar Network.dyn_peer[344] 	lookupHopsSig:mean 	23.230769230769
scalar Network.dyn_peer[345] 	lookupTimeSig:mean 	3.5916666666667
scalar Network.dyn_peer[345] 	lookupStabilitySig:mean 	0.95526411496879
scalar Network.dyn_peer[345] 	lookupHopsSig:mean 	35
scalar Network.dyn_peer[346] 	lookupTimeSig:mean 	1.3833333333333
scalar Network.dyn_peer[346] 	lookupStabilitySig:mean 	0.93320023889343
scalar Network.dyn_peer[346] 	lookupHopsSig:mean 	13
scalar Network.dyn_peer[347] 	lookupTimeSig:mean 	2.5642857142857
scalar Network.dyn_peer[347] 	lookupStabilitySig:mean 	0.9618474586002
scalar Network.dyn_peer[347] 	lookupHopsSig:mean 	24.714285714286
scalar Network.dyn_peer[348] 	lookupTimeSig:mean 	2.565
scalar Network.dyn_peer[348] 	lookupStabilitySig:mean 	0.96712771216407
scalar Network.dyn_peer[348] 	lookupHopsSig:mean 	24.7
scalar Network.dyn_peer[349] 	lookupTimeSig:mean 	2.5
scalar Network.dyn_peer[349] 	lookupStabilitySig:mean 	0.95059823114425
scalar Network.dyn_peer[349] 	lookupHopsSig:mean 	24.1
scalar Network.dyn_peer[350] 	lookupTimeSig:mean 	2.3666666666667
scalar Network.dyn_peer[350] 	lookupStabilitySig:mean 	0.96898312274263
scalar Network.dyn_peer[350] 	lookupHopsSig:mean 	22.722222222222
scalar Network.dyn_peer[351] 	lookupTimeSig:mean 	3.4090909090909
scalar Network.dyn_peer[351] 	lookupStabilitySig:mean 	0.96539139764553
scalar Network.dyn_peer[351] 	lookupHopsSig:mean 	33.181818181818
scalar Network.dyn_peer[352] 	lookupTimeSig:mean 	2.0625
scalar Network.dyn_peer[352] 	lookupStabilitySig:mean 	0.94973886787193
scalar Network.dyn_peer[352] 	lookupHopsSig:mean 	19.75
scalar Network.dyn_peer[353] 	lookupTimeSig:mean 	2.5083333333333
scalar Network.dyn_peer[353] 	lookupStabilitySig:mean 	0.95160834219617
scalar Network.dyn_peer[353] 	lookupHopsSig:mean 	24.166666666667
scalar Network.dyn_peer[354] 	lookupTimeSig:mean 	1.9428571428571
scalar Network.dyn_peer[354] 	lookupStabilitySig:mean 	0.94025703386537
scalar Network.dyn_peer[354] 	lookupHopsSig:mean 	18.571428571429
scalar Network.dyn_peer[355] 	lookupTimeSig:mean 	2.364
scalar Network.dyn_peer[355] 	lookupStabilitySig:mean 	0.97172034723451
scalar Network.dyn_peer[355] 	lookupHopsSig:mean 	22.68
scalar Network.dyn_peer[356] 	lookupTimeSig:mean 	2.3
scalar Network.dyn_peer[356] 	lookupStabilitySig:mean 	0.94389529590262
scalar Network.dyn_peer[356] 	lookupHopsSig:mean 	22.125
scalar Network.dyn_peer[357] 	lookupTimeSig:mean 	3.2416666666667
scalar Network.dyn_peer[357] 	lookupStabilitySig:mean 	0.97022644869867
scalar Network.dyn_peer[357] 	lookupHopsSig:mean 	31.458333333333
scalar Network.dyn_peer[358] 	lookupTimeSig:mean 	2.55
scalar Network.dyn_peer[358] 	lookupStabilitySig:mean 	0.9600306287674
scalar Network.dyn_peer[358] 	lookupHopsSig:mean 	24.571428571429
scalar Network.dyn_peer[359] 	lookupTimeSig:mean 	2.68
scalar Network.dyn_peer[359] 	lookupStabilitySig:mean 	0.96299366221453
scalar Network.dyn_peer[359] 	lookupHopsSig:mean 	25.866666666667
scalar Network.dyn_peer[360] 	lookupTimeSig:mean 	2.15
scalar Network.dyn_peer[360] 	lookupStabilitySig:mean 	0.92867464898154
scalar Network.dyn_peer[360] 	lookupHopsSig:mean 	20.75
scalar Network.dyn_peer[361] 	lookupTimeSig:mean 	1.45
scalar Network.dyn_peer[361] 	lookupStabilitySig:mean 	0.9469044720754
scalar Network.dyn_peer[361] 	lookupHopsSig:mean 	13.625
scalar Network.dyn_peer[362] 	lookupTimeSig:mean 	1.96875
scalar Network.dyn_peer[362] 	lookupStabilitySig:mean 	0.97086096550629
scalar Network.dyn_peer[362] 	lookupHopsSig:mean 	18.75
scalar Network.dyn_peer[363] 	lookupTimeSig:mean 	3.135
scalar Network.dyn_peer[363] 	lookupStabilitySig:mean 	0.97039482053369
scalar Network.dyn_peer[363] 	lookupHopsSig:mean 	30.4
scalar Network.dyn_peer[364] 	lookupTimeSig:mean 	1.175
scalar Network.dyn_peer[364] 	lookupStabilitySig:mean 	0.92569063417614
scalar Network.dyn_peer[364] 	lookupHopsSig:mean 	11
scalar Network.dyn_peer[365] 	lookupTimeSig:mean 	2.925
scalar Network.dyn_peer[365] 	lookupStabilitySig:mean 	0.95379426322567
scalar Network.dyn_peer[365] 	lookupHopsSig:mean 	28.333333333333
scalar Network.dyn_peer[366] 	lookupTimeSig:mean 	2.725
scalar Network.dyn_peer[366] 	lookupStabilitySig:mean 	0.95477023080457
scalar Network.dyn_peer[366] 	lookupHopsSig:mean 	26.333333333333
scalar Network.dyn_peer[367] 	lookupTimeSig:mean 	2.4555555555556
scalar Network.dyn_peer[367] 	lookupStabilitySig:mean 	0.94114839389092
scalar Network.dyn_peer[367] 	lookupHopsSig:mean 	23.666666666667
scalar Network.dyn_peer[368] 	lookupTimeSig:mean 	2.7428571428571
scalar Network.dyn_peer[368] 	lookupStabilitySig:mean 	0.96158517943695
scalar Network.dyn_peer[368] 	lookupHopsSig:mean 	26.5
scalar Network.dyn_peer[369] 	lookupTimeSig:mean 	2.72
scalar Network.dyn_peer[369] 	lookupStabilitySig:mean 	0.96247536347558
scalar Network.dyn_peer[369] 	lookupHopsSig:mean 	26.266666666667
scalar Network.dyn_peer[370] 	lookupTimeSig:mean 	2.3833333333333
scalar Network.dyn_peer[370] 	lookupStabilitySig:mean 	0.95880233201509
scalar Network.dyn_peer[370] 	lookupHopsSig:mean 	22.916666666667
scalar Network.dyn_peer[371] 	lookupTimeSig:mean 	2.8818181818182
scalar Network.dyn_peer[371] 	lookupStabilitySig:mean 	0.96805908683349
scalar Network.dyn_peer[371] 	lookupHopsSig:mean 	27.909090909091
scalar Network.dyn_peer[372] 	lookupTimeSig:mean 	2.51
scalar Network.dyn_peer[372] 	lookupStabilitySig:mean 	0.95680338428356
scalar Network.dyn_peer[372] 	lookupHopsSig:mean 	24.2
scalar Network.dyn_peer[373] 	lookupTimeSig:mean 	2.66
scalar Network.dyn_peer[373] 	lookupStabilitySig:mean 	0.95373724419624
scalar Network.dyn_peer[373] 	lookupHopsSig:mean 	25.7
scalar Network.dyn_peer[374] 	lookupTimeSig:mean 	2.2625
scalar Network.dyn_peer[374] 	lookupStabilitySig:mean 	0.95185597587988
scalar Network.dyn_peer[374] 	lookupHopsSig:mean 	21.75
scalar Network.dyn_peer[375] 	lookupTimeSig:mean 	1.95
scalar Network.dyn_peer[375] 	lookupStabilitySig:mean 	0.96361828339286
scalar Network.dyn_peer[375] 	lookupHopsSig:mean 	18.583333333333
scalar Network.dyn_peer[376] 	lookupTimeSig:mean 	1.7833333333333
scalar Network.dyn_peer[376] 	lookupStabilitySig:mean 	0.96209930085267
scalar Network.dyn_peer[376] 	lookupHopsSig:mean 	16.916666666667
scalar Network.dyn_peer[377] 	lookupTimeSig:mean 	2.2636363636364
scalar Network.dyn_peer[377] 	lookupStabilitySig:mean 	0.97001301704652
scalar Network.dyn_peer[377] 	lookupHopsSig:mean 	21.727272727273
scalar Network.dyn_peer[378] 	lookupTimeSig:mean 	1.08
scalar Network.dyn_peer[378] 	lookupStabilitySig:mean 	0.93869403451681
scalar Network.dyn_peer[378] 	lookupHopsSig:mean 	10
scalar Network.dyn_peer[379] 	lookupTimeSig:mean 	2.6384615384615
scalar Network.dyn_peer[379] 	lookupStabilitySig:mean 	0.96390407600512
scalar Network.dyn_peer[379] 	lookupHopsSig:mean 	25.461538461538
scalar Network.dyn_peer[380] 	lookupTimeSig:mean 	2.7857142857143
scalar Network.dyn_peer[380] 	lookupStabilitySig:mean 	0.96404385387099
scalar Network.dyn_peer[380] 	lookupHopsSig:mean 	26.928571428571
scalar Network.dyn_peer[381] 	lookupTimeSig:mean 	2.8153846153846
scalar Network.dyn_peer[381] 	lookupStabilitySig:mean 	0.9653111355415
scalar Network.dyn_peer[381] 	lookupHopsSig:mean 	27.230769230769
scalar Network.dyn_peer[382] 	lookupTimeSig:mean 	2.49
scalar Network.dyn_peer[382] 	lookupStabilitySig:mean 	0.94807952512056
scalar Network.dyn_peer[382] 	lookupHopsSig:mean 	24
scalar Network.dyn_peer[383] 	lookupTimeSig:mean 	1.9363636363636
scalar Network.dyn_peer[383] 	lookupStabilitySig:mean 	0.95664067033001
scalar Network.dyn_peer[383] 	lookupHopsSig:mean 	18.454545454545
scalar Network.dyn_peer[384] 	lookupTimeSig:mean 	2.6181818181818
scalar Network.dyn_peer[384] 	lookupStabilitySig:mean 	0.95751286213371
scalar Network.dyn_peer[384] 	lookupHopsSig:mean 	25.272727272727
scalar Network.dyn_peer[385] 	lookupTimeSig:mean 	2.165
scalar Network.dyn_peer[385] 	lookupStabilitySig:mean 	0.97241414496675
scalar Network.dyn_peer[385] 	lookupHopsSig:mean 	20.7
scalar Network.dyn_peer[386] 	lookupTimeSig:mean 	1.9111111111111
scalar Network.dyn_peer[386] 	lookupStabilitySig:mean 	0.97465485506756
scalar Network.dyn_peer[386] 	lookupHopsSig:mean 	18.166666666667
scalar Network.dyn_peer[387] 	lookupTimeSig:mean 	1.89
scalar Network.dyn_peer[387] 	lookupStabilitySig:mean 	0.95369890378788
scalar Network.dyn_peer[387] 	lookupHopsSig:mean 	18
scalar Network.dyn_peer[388] 	lookupTimeSig:mean 	2.6647058823529
scalar Network.dyn_peer[388] 	lookupStabilitySig:mean 	0.96776928867706
scalar Network.dyn_peer[388] 	lookupHopsSig:mean 	25.705882352941
scalar Network.dyn_peer[389] 	lookupTimeSig:mean 	2.7846153846154
scalar Network.dyn_peer[389] 	lookupStabilitySig:mean 	0.95617969230247
scalar Network.dyn_peer[389] 	lookupHopsSig:mean 	26.923076923077
scalar Network.dyn_peer[390] 	lookupTimeSig:mean 	2.675
scalar Network.dyn_peer[390] 	lookupStabilitySig:mean 	0.96885195777286
scalar Network.dyn_peer[390] 	lookupHopsSig:mean 	25.8
scalar Network.dyn_peer[391] 	lookupTimeSig:mean 	2.0142857142857
scalar Network.dyn_peer[391] 	lookupStabilitySig:mean 	0.97095216533524
scalar Network.dyn_peer[391] 	lookupHopsSig:mean 	19.190476190476
scalar Network.dyn_peer[392] 	lookupTimeSig:mean 	2.8
scalar Network.dyn_peer[392] 	lookupStabilitySig:mean 	0.96957949502394
scalar Network.dyn_peer[392] 	lookupHopsSig:mean 	27.058823529412
scalar Network.dyn_peer[393] 	lookupTimeSig:mean 	1.6888888888889
scalar Network.dyn_peer[393] 	lookupStabilitySig:mean 	0.96071986305631
scalar Network.dyn_peer[393] 	lookupHopsSig:mean 	16
scalar Network.dyn_peer[394] 	lookupTimeSig:mean 	2
scalar Network.dyn_peer[394] 	lookupStabilitySig:mean 	0.96624806458847
scalar Network.dyn_peer[394] 	lookupHopsSig:mean 	19.076923076923
scalar Network.dyn_peer[395] 	lookupTimeSig:mean 	2.7444444444444
scalar Network.dyn_peer[395] 	lookupStabilitySig:mean 	0.95762543721745
scalar Network.dyn_peer[395] 	lookupHopsSig:mean 	26.555555555556
scalar Network.dyn_peer[396] 	lookupTimeSig:mean 	3.18125
scalar Network.dyn_peer[396] 	lookupStabilitySig:mean 	0.96703384659486
scalar Network.dyn_peer[396] 	lookupHopsSig:mean 	30.875
scalar Network.dyn_peer[397] 	lookupTimeSig:mean 	2.8181818181818
scalar Network.dyn_peer[397] 	lookupStabilitySig:mean 	0.96057150737298
scalar Network.dyn_peer[397] 	lookupHopsSig:mean 	27.272727272727
scalar Network.dyn_peer[398] 	lookupTimeSig:mean 	2.4368421052632
scalar Network.dyn_peer[398] 	lookupStabilitySig:mean 	0.97223494662658
scalar Network.dyn_peer[398] 	lookupHopsSig:mean 	23.421052631579
scalar Network.dyn_peer[399] 	lookupTimeSig:mean 	1.75
scalar Network.dyn_peer[399] 	lookupStabilitySig:mean 	0.96431374403515
scalar Network.dyn_peer[399] 	lookupHopsSig:mean 	16.571428571429
scalar Network.dyn_peer[400] 	lookupTimeSig:mean 	2.1357142857143
scalar Network.dyn_peer[400] 	lookupStabilitySig:mean 	0.96087082069633
scalar Network.dyn_peer[400] 	lookupHopsSig:mean 	20.428571428571
scalar Network.dyn_peer[401] 	lookupTimeSig:mean 	2.3666666666667
scalar Network.dyn_peer[401] 	lookupStabilitySig:mean 	0.9458513578607
scalar Network.dyn_peer[401] 	lookupHopsSig:mean 	22.777777777778
scalar Network.dyn_peer[402] 	lookupTimeSig:mean 	1.2857142857143
scalar Network.dyn_peer[402] 	lookupStabilitySig:mean 	0.95967293164826
scalar Network.dyn_peer[402] 	lookupHopsSig:mean 	12
scalar Network.dyn_peer[403] 	lookupTimeSig:mean 	2.4272727272727
scalar Network.dyn_peer[403] 	lookupStabilitySig:mean 	0.96051309998571
scalar Network.dyn_peer[403] 	lookupHopsSig:mean 	23.363636363636
scalar Network.dyn_peer[404] 	lookupTimeSig:mean 	3.9
scalar Network.dyn_peer[404] 	lookupStabilitySig:mean 	0.95092217389029
scalar Network.dyn_peer[404] 	lookupHopsSig:mean 	38.1
scalar Network.dyn_peer[405] 	lookupTimeSig:mean 	2.3380952380952
scalar Network.dyn_peer[405] 	lookupStabilitySig:mean 	0.9722086252046
scalar Network.dyn_peer[405] 	lookupHopsSig:mean 	22.428571428571
scalar Network.dyn_peer[406] 	lookupTimeSig:mean 	2.39
scalar Network.dyn_peer[406] 	lookupStabilitySig:mean 	0.9693143255543
scalar Network.dyn_peer[406] 	lookupHopsSig:mean 	23
[...]
scalar Network.dyn_peer[9885] 	lookupTimeSig:mean 	-nan
scalar Network.dyn_peer[9885] 	lookupStabilitySig:mean 	-nan
scalar Network.dyn_peer[9885] 	lookupHopsSig:mean 	-nan
scalar Network.dyn_peer[9886] 	lookupTimeSig:mean 	-nan
scalar Network.dyn_peer[9886] 	lookupStabilitySig:mean 	-nan
scalar Network.dyn_peer[9886] 	lookupHopsSig:mean 	-nan
scalar Network.dyn_peer[9887] 	lookupTimeSig:mean 	-nan
scalar Network.dyn_peer[9887] 	lookupStabilitySig:mean 	-nan
scalar Network.dyn_peer[9887] 	lookupHopsSig:mean 	-nan
scalar Network.dyn_peer[9888] 	lookupTimeSig:mean 	-nan
scalar Network.dyn_peer[9888] 	lookupStabilitySig:mean 	-nan
scalar Network.dyn_peer[9888] 	lookupHopsSig:mean 	-nan
scalar Network.dyn_peer[9889] 	lookupTimeSig:mean 	-nan
scalar Network.dyn_peer[9889] 	lookupStabilitySig:mean 	-nan
scalar Network.dyn_peer[9889] 	lookupHopsSig:mean 	-nan
scalar Network.dyn_peer[9890] 	lookupTimeSig:mean 	-nan
scalar Network.dyn_peer[9890] 	lookupStabilitySig:mean 	-nan
scalar Network.dyn_peer[9890] 	lookupHopsSig:mean 	-nan
scalar Network.dyn_peer[9891] 	lookupTimeSig:mean 	-nan
scalar Network.dyn_peer[9891] 	lookupStabilitySig:mean 	-nan
scalar Network.dyn_peer[9891] 	lookupHopsSig:mean 	-nan
scalar Network.dyn_peer[9892] 	lookupTimeSig:mean 	-nan
scalar Network.dyn_peer[9892] 	lookupStabilitySig:mean 	-nan
scalar Network.dyn_peer[9892] 	lookupHopsSig:mean 	-nan
scalar Network.dyn_peer[9893] 	lookupTimeSig:mean 	-nan
scalar Network.dyn_peer[9893] 	lookupStabilitySig:mean 	-nan
scalar Network.dyn_peer[9893] 	lookupHopsSig:mean 	-nan
scalar Network.dyn_peer[9894] 	lookupTimeSig:mean 	-nan
scalar Network.dyn_peer[9894] 	lookupStabilitySig:mean 	-nan
scalar Network.dyn_peer[9894] 	lookupHopsSig:mean 	-nan
scalar Network.dyn_peer[9895] 	lookupTimeSig:mean 	-nan
scalar Network.dyn_peer[9895] 	lookupStabilitySig:mean 	-nan
scalar Network.dyn_peer[9895] 	lookupHopsSig:mean 	-nan
scalar Network.dyn_peer[9896] 	lookupTimeSig:mean 	-nan
scalar Network.dyn_peer[9896] 	lookupStabilitySig:mean 	-nan
scalar Network.dyn_peer[9896] 	lookupHopsSig:mean 	-nan
scalar Network.dyn_peer[9897] 	lookupTimeSig:mean 	-nan
scalar Network.dyn_peer[9897] 	lookupStabilitySig:mean 	-nan
scalar Network.dyn_peer[9897] 	lookupHopsSig:mean 	-nan
scalar Network.dyn_peer[9898] 	lookupTimeSig:mean 	-nan
scalar Network.dyn_peer[9898] 	lookupStabilitySig:mean 	-nan
scalar Network.dyn_peer[9898] 	lookupHopsSig:mean 	-nan
scalar Network.dyn_peer[9899] 	lookupTimeSig:mean 	-nan
scalar Network.dyn_peer[9899] 	lookupStabilitySig:mean 	-nan
scalar Network.dyn_peer[9899] 	lookupHopsSig:mean 	-nan
scalar Network.dyn_peer[9900] 	lookupTimeSig:mean 	-nan
scalar Network.dyn_peer[9900] 	lookupStabilitySig:mean 	-nan
scalar Network.dyn_peer[9900] 	lookupHopsSig:mean 	-nan
scalar Network.dyn_peer[9901] 	lookupTimeSig:mean 	-nan
scalar Network.dyn_peer[9901] 	lookupStabilitySig:mean 	-nan
scalar Network.dyn_peer[9901] 	lookupHopsSig:mean 	-nan
scalar Network.dyn_peer[9902] 	lookupTimeSig:mean 	-nan
scalar Network.dyn_peer[9902] 	lookupStabilitySig:mean 	-nan
scalar Network.dyn_peer[9902] 	lookupHopsSig:mean 	-nan
scalar Network.dyn_peer[9903] 	lookupTimeSig:mean 	-nan
scalar Network.dyn_peer[9903] 	lookupStabilitySig:mean 	-nan
scalar Network.dyn_peer[9903] 	lookupHopsSig:mean 	-nan
scalar Network.dyn_peer[9904] 	lookupTimeSig:mean 	-nan
scalar Network.dyn_peer[9904] 	lookupStabilitySig:mean 	-nan
scalar Network.dyn_peer[9904] 	lookupHopsSig:mean 	-nan
scalar Network.dyn_peer[9905] 	lookupTimeSig:mean 	-nan
scalar Network.dyn_peer[9905] 	lookupStabilitySig:mean 	-nan
scalar Network.dyn_peer[9905] 	lookupHopsSig:mean 	-nan
scalar Network.dyn_peer[9906] 	lookupTimeSig:mean 	-nan
scalar Network.dyn_peer[9906] 	lookupStabilitySig:mean 	-nan
scalar Network.dyn_peer[9906] 	lookupHopsSig:mean 	-nan
scalar Network.dyn_peer[9907] 	lookupTimeSig:mean 	-nan
scalar Network.dyn_peer[9907] 	lookupStabilitySig:mean 	-nan
scalar Network.dyn_peer[9907] 	lookupHopsSig:mean 	-nan
scalar Network.dyn_peer[9908] 	lookupTimeSig:mean 	-nan
scalar Network.dyn_peer[9908] 	lookupStabilitySig:mean 	-nan
scalar Network.dyn_peer[9908] 	lookupHopsSig:mean 	-nan
scalar Network.dyn_peer[9909] 	lookupTimeSig:mean 	-nan
scalar Network.dyn_peer[9909] 	lookupStabilitySig:mean 	-nan
scalar Network.dyn_peer[9909] 	lookupHopsSig:mean 	-nan
scalar Network.dyn_peer[9910] 	lookupTimeSig:mean 	-nan
scalar Network.dyn_peer[9910] 	lookupStabilitySig:mean 	-nan
scalar Network.dyn_peer[9910] 	lookupHopsSig:mean 	-nan
scalar Network.dyn_peer[9911] 	lookupTimeSig:mean 	-nan
scalar Network.dyn_peer[9911] 	lookupStabilitySig:mean 	-nan
scalar Network.dyn_peer[9911] 	lookupHopsSig:mean 	-nan
scalar Network.dyn_peer[9912] 	lookupTimeSig:mean 	-nan
scalar Network.dyn_peer[9912] 	lookupStabilitySig:mean 	-nan
scalar Network.dyn_peer[9912] 	lookupHopsSig:mean 	-nan
scalar Network.dyn_peer[9913] 	lookupTimeSig:mean 	-nan
scalar Network.dyn_peer[9913] 	lookupStabilitySig:mean 	-nan
scalar Network.dyn_peer[9913] 	lookupHopsSig:mean 	-nan
scalar Network.dyn_peer[9914] 	lookupTimeSig:mean 	-nan
scalar Network.dyn_peer[9914] 	lookupStabilitySig:mean 	-nan
scalar Network.dyn_peer[9914] 	lookupHopsSig:mean 	-nan
scalar Network.dyn_peer[9915] 	lookupTimeSig:mean 	-nan
scalar Network.dyn_peer[9915] 	lookupStabilitySig:mean 	-nan
scalar Network.dyn_peer[9915] 	lookupHopsSig:mean 	-nan
scalar Network.dyn_peer[9916] 	lookupTimeSig:mean 	-nan
scalar Network.dyn_peer[9916] 	lookupStabilitySig:mean 	-nan
scalar Network.dyn_peer[9916] 	lookupHopsSig:mean 	-nan
scalar Network.dyn_peer[9917] 	lookupTimeSig:mean 	-nan
scalar Network.dyn_peer[9917] 	lookupStabilitySig:mean 	-nan
scalar Network.dyn_peer[9917] 	lookupHopsSig:mean 	-nan
scalar Network.dyn_peer[9918] 	lookupTimeSig:mean 	-nan
scalar Network.dyn_peer[9918] 	lookupStabilitySig:mean 	-nan
scalar Network.dyn_peer[9918] 	lookupHopsSig:mean 	-nan
scalar Network.dyn_peer[9919] 	lookupTimeSig:mean 	-nan
scalar Network.dyn_peer[9919] 	lookupStabilitySig:mean 	-nan
scalar Network.dyn_peer[9919] 	lookupHopsSig:mean 	-nan
scalar Network.dyn_peer[9920] 	lookupTimeSig:mean 	-nan
scalar Network.dyn_peer[9920] 	lookupStabilitySig:mean 	-nan
scalar Network.dyn_peer[9920] 	lookupHopsSig:mean 	-nan
scalar Network.dyn_peer[9921] 	lookupTimeSig:mean 	-nan
scalar Network.dyn_peer[9921] 	lookupStabilitySig:mean 	-nan
scalar Network.dyn_peer[9921] 	lookupHopsSig:mean 	-nan
scalar Network.dyn_peer[9922] 	lookupTimeSig:mean 	-nan
scalar Network.dyn_peer[9922] 	lookupStabilitySig:mean 	-nan
scalar Network.dyn_peer[9922] 	lookupHopsSig:mean 	-nan
scalar Network.dyn_peer[9923] 	lookupTimeSig:mean 	-nan
scalar Network.dyn_peer[9923] 	lookupStabilitySig:mean 	-nan
scalar Network.dyn_peer[9923] 	lookupHopsSig:mean 	-nan
scalar Network.dyn_peer[9924] 	lookupTimeSig:mean 	-nan
scalar Network.dyn_peer[9924] 	lookupStabilitySig:mean 	-nan
scalar Network.dyn_peer[9924] 	lookupHopsSig:mean 	-nan
scalar Network.dyn_peer[9925] 	lookupTimeSig:mean 	-nan
scalar Network.dyn_peer[9925] 	lookupStabilitySig:mean 	-nan
scalar Network.dyn_peer[9925] 	lookupHopsSig:mean 	-nan
scalar Network.dyn_peer[9926] 	lookupTimeSig:mean 	-nan
scalar Network.dyn_peer[9926] 	lookupStabilitySig:mean 	-nan
scalar Network.dyn_peer[9926] 	lookupHopsSig:mean 	-nan
scalar Network.dyn_peer[9927] 	lookupTimeSig:mean 	-nan
scalar Network.dyn_peer[9927] 	lookupStabilitySig:mean 	-nan
scalar Network.dyn_peer[9927] 	lookupHopsSig:mean 	-nan
scalar Network.dyn_peer[9928] 	lookupTimeSig:mean 	-nan
scalar Network.dyn_peer[9928] 	lookupStabilitySig:mean 	-nan
scalar Network.dyn_peer[9928] 	lookupHopsSig:mean 	-nan
scalar Network.dyn_peer[9929] 	lookupTimeSig:mean 	-nan
scalar Network.dyn_peer[9929] 	lookupStabilitySig:mean 	-nan
scalar Network.dyn_peer[9929] 	lookupHopsSig:mean 	-nan
scalar Network.dyn_peer[9930] 	lookupTimeSig:mean 	-nan
scalar Network.dyn_peer[9930] 	lookupStabilitySig:mean 	-nan
scalar Network.dyn_peer[9930] 	lookupHopsSig:mean 	-nan
scalar Network.dyn_peer[9931] 	lookupTimeSig:mean 	-nan
scalar Network.dyn_peer[9931] 	lookupStabilitySig:mean 	-nan
scalar Network.dyn_peer[9931] 	lookupHopsSig:mean 	-nan
scalar Network.dyn_peer[9932] 	lookupTimeSig:mean 	-nan
scalar Network.dyn_peer[9932] 	lookupStabilitySig:mean 	-nan
scalar Network.dyn_peer[9932] 	lookupHopsSig:mean 	-nan
scalar Network.dyn_peer[9933] 	lookupTimeSig:mean 	-nan
scalar Network.dyn_peer[9933] 	lookupStabilitySig:mean 	-nan
scalar Network.dyn_peer[9933] 	lookupHopsSig:mean 	-nan
scalar Network.dyn_peer[9934] 	lookupTimeSig:mean 	-nan
scalar Network.dyn_peer[9934] 	lookupStabilitySig:mean 	-nan
scalar Network.dyn_peer[9934] 	lookupHopsSig:mean 	-nan
scalar Network.dyn_peer[9935] 	lookupTimeSig:mean 	-nan
scalar Network.dyn_peer[9935] 	lookupStabilitySig:mean 	-nan
scalar Network.dyn_peer[9935] 	lookupHopsSig:mean 	-nan
scalar Network.dyn_peer[9936] 	lookupTimeSig:mean 	-nan
scalar Network.dyn_peer[9936] 	lookupStabilitySig:mean 	-nan
scalar Network.dyn_peer[9936] 	lookupHopsSig:mean 	-nan
scalar Network.dyn_peer[9937] 	lookupTimeSig:mean 	-nan
scalar Network.dyn_peer[9937] 	lookupStabilitySig:mean 	-nan
scalar Network.dyn_peer[9937] 	lookupHopsSig:mean 	-nan
scalar Network.dyn_peer[9938] 	lookupTimeSig:mean 	-nan
scalar Network.dyn_peer[9938] 	lookupStabilitySig:mean 	-nan
scalar Network.dyn_peer[9938] 	lookupHopsSig:mean 	-nan
scalar Network.dyn_peer[9939] 	lookupTimeSig:mean 	-nan
scalar Network.dyn_peer[9939] 	lookupStabilitySig:mean 	-nan
scalar Network.dyn_peer[9939] 	lookupHopsSig:mean 	-nan
scalar Network.dyn_peer[9940] 	lookupTimeSig:mean 	-nan
scalar Network.dyn_peer[9940] 	lookupStabilitySig:mean 	-nan
scalar Network.dyn_peer[9940] 	lookupHopsSig:mean 	-nan
scalar Network.dyn_peer[9941] 	lookupTimeSig:mean 	-nan
scalar Network.dyn_peer[9941] 	lookupStabilitySig:mean 	-nan
scalar Network.dyn_peer[9941] 	lookupHopsSig:mean 	-nan
scalar Network.dyn_peer[9942] 	lookupTimeSig:mean 	-nan
scalar Network.dyn_peer[9942] 	lookupStabilitySig:mean 	-nan
scalar Network.dyn_peer[9942] 	lookupHopsSig:mean 	-nan
scalar Network.dyn_peer[9943] 	lookupTimeSig:mean 	-nan
scalar Network.dyn_peer[9943] 	lookupStabilitySig:mean 	-nan
scalar Network.dyn_peer[9943] 	lookupHopsSig:mean 	-nan
scalar Network.dyn_peer[9944] 	lookupTimeSig:mean 	-nan
scalar Network.dyn_peer[9944] 	lookupStabilitySig:mean 	-nan
scalar Network.dyn_peer[9944] 	lookupHopsSig:mean 	-nan
scalar Network.dyn_peer[9945] 	lookupTimeSig:mean 	-nan
scalar Network.dyn_peer[9945] 	lookupStabilitySig:mean 	-nan
scalar Network.dyn_peer[9945] 	lookupHopsSig:mean 	-nan
scalar Network.dyn_peer[9946] 	lookupTimeSig:mean 	-nan
scalar Network.dyn_peer[9946] 	lookupStabilitySig:mean 	-nan
scalar Network.dyn_peer[9946] 	lookupHopsSig:mean 	-nan
scalar Network.dyn_peer[9947] 	lookupTimeSig:mean 	-nan
scalar Network.dyn_peer[9947] 	lookupStabilitySig:mean 	-nan
scalar Network.dyn_peer[9947] 	lookupHopsSig:mean 	-nan
scalar Network.dyn_peer[9948] 	lookupTimeSig:mean 	-nan
scalar Network.dyn_peer[9948] 	lookupStabilitySig:mean 	-nan
scalar Network.dyn_peer[9948] 	lookupHopsSig:mean 	-nan
scalar Network.dyn_peer[9949] 	lookupTimeSig:mean 	-nan
scalar Network.dyn_peer[9949] 	lookupStabilitySig:mean 	-nan
scalar Network.dyn_peer[9949] 	lookupHopsSig:mean 	-nan
scalar Network.dyn_peer[9950] 	lookupTimeSig:mean 	-nan
scalar Network.dyn_peer[9950] 	lookupStabilitySig:mean 	-nan
scalar Network.dyn_peer[9950] 	lookupHopsSig:mean 	-nan
scalar Network.dyn_peer[9951] 	lookupTimeSig:mean 	-nan
scalar Network.dyn_peer[9951] 	lookupStabilitySig:mean 	-nan
scalar Network.dyn_peer[9951] 	lookupHopsSig:mean 	-nan
scalar Network.dyn_peer[9952] 	lookupTimeSig:mean 	-nan
scalar Network.dyn_peer[9952] 	lookupStabilitySig:mean 	-nan
scalar Network.dyn_peer[9952] 	lookupHopsSig:mean 	-nan
scalar Network.dyn_peer[9953] 	lookupTimeSig:mean 	-nan
scalar Network.dyn_peer[9953] 	lookupStabilitySig:mean 	-nan
scalar Network.dyn_peer[9953] 	lookupHopsSig:mean 	-nan
scalar Network.dyn_peer[9954] 	lookupTimeSig:mean 	-nan
scalar Network.dyn_peer[9954] 	lookupStabilitySig:mean 	-nan
scalar Network.dyn_peer[9954] 	lookupHopsSig:mean 	-nan
scalar Network.dyn_peer[9955] 	lookupTimeSig:mean 	-nan
scalar Network.dyn_peer[9955] 	lookupStabilitySig:mean 	-nan
scalar Network.dyn_peer[9955] 	lookupHopsSig:mean 	-nan
scalar Network.dyn_peer[9956] 	lookupTimeSig:mean 	-nan
scalar Network.dyn_peer[9956] 	lookupStabilitySig:mean 	-nan
scalar Network.dyn_peer[9956] 	lookupHopsSig:mean 	-nan
scalar Network.dyn_peer[9957] 	lookupTimeSig:mean 	-nan
scalar Network.dyn_peer[9957] 	lookupStabilitySig:mean 	-nan
scalar Network.dyn_peer[9957] 	lookupHopsSig:mean 	-nan
scalar Network.dyn_peer[9958] 	lookupTimeSig:mean 	-nan
scalar Network.dyn_peer[9958] 	lookupStabilitySig:mean 	-nan
scalar Network.dyn_peer[9958] 	lookupHopsSig:mean 	-nan
scalar Network.dyn_peer[9959] 	lookupTimeSig:mean 	-nan
scalar Network.dyn_peer[9959] 	lookupStabilitySig:mean 	-nan
scalar Network.dyn_peer[9959] 	lookupHopsSig:mean 	-nan
scalar Network.dyn_peer[9960] 	lookupTimeSig:mean 	-nan
scalar Network.dyn_peer[9960] 	lookupStabilitySig:mean 	-nan
scalar Network.dyn_peer[9960] 	lookupHopsSig:mean 	-nan
scalar Network.dyn_peer[9961] 	lookupTimeSig:mean 	-nan
scalar Network.dyn_peer[9961] 	lookupStabilitySig:mean 	-nan
scalar Network.dyn_peer[9961] 	lookupHopsSig:mean 	-nan
scalar Network.dyn_peer[9962] 	lookupTimeSig:mean 	-nan
scalar Network.dyn_peer[9962] 	lookupStabilitySig:mean 	-nan
scalar Network.dyn_peer[9962] 	lookupHopsSig:mean 	-nan
scalar Network.dyn_peer[9963] 	lookupTimeSig:mean 	-nan
scalar Network.dyn_peer[9963] 	lookupStabilitySig:mean 	-nan
scalar Network.dyn_peer[9963] 	lookupHopsSig:mean 	-nan
scalar Network.dyn_peer[9964] 	lookupTimeSig:mean 	-nan
scalar Network.dyn_peer[9964] 	lookupStabilitySig:mean 	-nan
scalar Network.dyn_peer[9964] 	lookupHopsSig:mean 	-nan
scalar Network.dyn_peer[9965] 	lookupTimeSig:mean 	-nan
scalar Network.dyn_peer[9965] 	lookupStabilitySig:mean 	-nan
scalar Network.dyn_peer[9965] 	lookupHopsSig:mean 	-nan
scalar Network.dyn_peer[9966] 	lookupTimeSig:mean 	-nan
scalar Network.dyn_peer[9966] 	lookupStabilitySig:mean 	-nan
scalar Network.dyn_peer[9966] 	lookupHopsSig:mean 	-nan
scalar Network.dyn_peer[9967] 	lookupTimeSig:mean 	-nan
scalar Network.dyn_peer[9967] 	lookupStabilitySig:mean 	-nan
scalar Network.dyn_peer[9967] 	lookupHopsSig:mean 	-nan
scalar Network.dyn_peer[9968] 	lookupTimeSig:mean 	-nan
scalar Network.dyn_peer[9968] 	lookupStabilitySig:mean 	-nan
scalar Network.dyn_peer[9968] 	lookupHopsSig:mean 	-nan
scalar Network.dyn_peer[9969] 	lookupTimeSig:mean 	-nan
scalar Network.dyn_peer[9969] 	lookupStabilitySig:mean 	-nan
scalar Network.dyn_peer[9969] 	lookupHopsSig:mean 	-nan
scalar Network.dyn_peer[9970] 	lookupTimeSig:mean 	-nan
scalar Network.dyn_peer[9970] 	lookupStabilitySig:mean 	-nan
scalar Network.dyn_peer[9970] 	lookupHopsSig:mean 	-nan
scalar Network.dyn_peer[9971] 	lookupTimeSig:mean 	-nan
scalar Network.dyn_peer[9971] 	lookupStabilitySig:mean 	-nan
scalar Network.dyn_peer[9971] 	lookupHopsSig:mean 	-nan
scalar Network.dyn_peer[9972] 	lookupTimeSig:mean 	-nan
scalar Network.dyn_peer[9972] 	lookupStabilitySig:mean 	-nan
scalar Network.dyn_peer[9972] 	lookupHopsSig:mean 	-nan
scalar Network.dyn_peer[9973] 	lookupTimeSig:mean 	-nan
scalar Network.dyn_peer[9973] 	lookupStabilitySig:mean 	-nan
scalar Network.dyn_peer[9973] 	lookupHopsSig:mean 	-nan
scalar Network.dyn_peer[9974] 	lookupTimeSig:mean 	-nan
scalar Network.dyn_peer[9974] 	lookupStabilitySig:mean 	-nan
scalar Network.dyn_peer[9974] 	lookupHopsSig:mean 	-nan
scalar Network.dyn_peer[9975] 	lookupTimeSig:mean 	-nan
scalar Network.dyn_peer[9975] 	lookupStabilitySig:mean 	-nan
scalar Network.dyn_peer[9975] 	lookupHopsSig:mean 	-nan
scalar Network.dyn_peer[9976] 	lookupTimeSig:mean 	-nan
scalar Network.dyn_peer[9976] 	lookupStabilitySig:mean 	-nan
scalar Network.dyn_peer[9976] 	lookupHopsSig:mean 	-nan
scalar Network.dyn_peer[9977] 	lookupTimeSig:mean 	-nan
scalar Network.dyn_peer[9977] 	lookupStabilitySig:mean 	-nan
scalar Network.dyn_peer[9977] 	lookupHopsSig:mean 	-nan
scalar Network.dyn_peer[9978] 	lookupTimeSig:mean 	-nan
scalar Network.dyn_peer[9978] 	lookupStabilitySig:mean 	-nan
scalar Network.dyn_peer[9978] 	lookupHopsSig:mean 	-nan
scalar Network.dyn_peer[9979] 	lookupTimeSig:mean 	-nan
scalar Network.dyn_peer[9979] 	lookupStabilitySig:mean 	-nan
scalar Network.dyn_peer[9979] 	lookupHopsSig:mean 	-nan
scalar Network.dyn_peer[9980] 	lookupTimeSig:mean 	-nan
scalar Network.dyn_peer[9980] 	lookupStabilitySig:mean 	-nan
scalar Network.dyn_peer[9980] 	lookupHopsSig:mean 	-nan
scalar Network.dyn_peer[9981] 	lookupTimeSig:mean 	-nan
scalar Network.dyn_peer[9981] 	lookupStabilitySig:mean 	-nan
scalar Network.dyn_peer[9981] 	lookupHopsSig:mean 	-nan
scalar Network.dyn_peer[9982] 	lookupTimeSig:mean 	-nan
scalar Network.dyn_peer[9982] 	lookupStabilitySig:mean 	-nan
scalar Network.dyn_peer[9982] 	lookupHopsSig:mean 	-nan
scalar Network.dyn_peer[9983] 	lookupTimeSig:mean 	-nan
scalar Network.dyn_peer[9983] 	lookupStabilitySig:mean 	-nan
scalar Network.dyn_peer[9983] 	lookupHopsSig:mean 	-nan
scalar Network.dyn_peer[9984] 	lookupTimeSig:mean 	-nan
scalar Network.dyn_peer[9984] 	lookupStabilitySig:mean 	-nan
scalar Network.dyn_peer[9984] 	lookupHopsSig:mean 	-nan
scalar Network.dyn_peer[9985] 	lookupTimeSig:mean 	-nan
scalar Network.dyn_peer[9985] 	lookupStabilitySig:mean 	-nan
scalar Network.dyn_peer[9985] 	lookupHopsSig:mean 	-nan
scalar Network.dyn_peer[9986] 	lookupTimeSig:mean 	-nan
scalar Network.dyn_peer[9986] 	lookupStabilitySig:mean 	-nan
scalar Network.dyn_peer[9986] 	lookupHopsSig:mean 	-nan
scalar Network.dyn_peer[9987] 	lookupTimeSig:mean 	-nan
scalar Network.dyn_peer[9987] 	lookupStabilitySig:mean 	-nan
scalar Network.dyn_peer[9987] 	lookupHopsSig:mean 	-nan
scalar Network.dyn_peer[9988] 	lookupTimeSig:mean 	-nan
scalar Network.dyn_peer[9988] 	lookupStabilitySig:mean 	-nan
scalar Network.dyn_peer[9988] 	lookupHopsSig:mean 	-nan
scalar Network.dyn_peer[9989] 	lookupTimeSig:mean 	-nan
scalar Network.dyn_peer[9989] 	lookupStabilitySig:mean 	-nan
scalar Network.dyn_peer[9989] 	lookupHopsSig:mean 	-nan
scalar Network.dyn_peer[9990] 	lookupTimeSig:mean 	-nan
scalar Network.dyn_peer[9990] 	lookupStabilitySig:mean 	-nan
scalar Network.dyn_peer[9990] 	lookupHopsSig:mean 	-nan
scalar Network.dyn_peer[9991] 	lookupTimeSig:mean 	-nan
scalar Network.dyn_peer[9991] 	lookupStabilitySig:mean 	-nan
scalar Network.dyn_peer[9991] 	lookupHopsSig:mean 	-nan
scalar Network.dyn_peer[9992] 	lookupTimeSig:mean 	-nan
scalar Network.dyn_peer[9992] 	lookupStabilitySig:mean 	-nan
scalar Network.dyn_peer[9992] 	lookupHopsSig:mean 	-nan
scalar Network.dyn_peer[9993] 	lookupTimeSig:mean 	-nan
scalar Network.dyn_peer[9993] 	lookupStabilitySig:mean 	-nan
scalar Network.dyn_peer[9993] 	lookupHopsSig:mean 	-nan
scalar Network.dyn_peer[9994] 	lookupTimeSig:mean 	-nan
scalar Network.dyn_peer[9994] 	lookupStabilitySig:mean 	-nan
scalar Network.dyn_peer[9994] 	lookupHopsSig:mean 	-nan
scalar Network.dyn_peer[9995] 	lookupTimeSig:mean 	-nan
scalar Network.dyn_peer[9995] 	lookupStabilitySig:mean 	-nan
scalar Network.dyn_peer[9995] 	lookupHopsSig:mean 	-nan
scalar Network.dyn_peer[9996] 	lookupTimeSig:mean 	-nan
scalar Network.dyn_peer[9996] 	lookupStabilitySig:mean 	-nan
scalar Network.dyn_peer[9996] 	lookupHopsSig:mean 	-nan
scalar Network.dyn_peer[9997] 	lookupTimeSig:mean 	-nan
scalar Network.dyn_peer[9997] 	lookupStabilitySig:mean 	-nan
scalar Network.dyn_peer[9997] 	lookupHopsSig:mean 	-nan
scalar Network.dyn_peer[9998] 	lookupTimeSig:mean 	-nan
scalar Network.dyn_peer[9998] 	lookupStabilitySig:mean 	-nan
scalar Network.dyn_peer[9998] 	lookupHopsSig:mean 	-nan
scalar Network.dyn_peer[9999] 	lookupTimeSig:mean 	-nan
scalar Network.dyn_peer[9999] 	lookupStabilitySig:mean 	-nan
scalar Network.dyn_peer[9999] 	lookupHopsSig:mean 	-nan
scalar Network.churner 	inGoingSizeSig:mean 	1081.3794051487
