version 2
run Stability2-100-20130528-01:57:15-24168
attr configname Stability2
attr datetime 20130528-01:57:15
attr experiment Stability2
attr inifile omnetpp.ini
attr iterationvars $0=1000
attr iterationvars2 "$0=1000, $repetition=0"
attr measurement $0=1000
attr network Network
attr processid 24168
attr repetition 0
attr replication #0
attr resultdir results
attr runnumber 100
attr seedset 100

scalar Network.dyn_peer[0] 	lookupTimeSig:mean 	3.2272727272727
scalar Network.dyn_peer[0] 	lookupStabilitySig:mean 	0.90131866893816
scalar Network.dyn_peer[0] 	lookupHopsSig:mean 	31.318181818182
scalar Network.dyn_peer[1] 	lookupTimeSig:mean 	2.7294117647059
scalar Network.dyn_peer[1] 	lookupStabilitySig:mean 	0.87395678537295
scalar Network.dyn_peer[1] 	lookupHopsSig:mean 	26.352941176471
scalar Network.dyn_peer[2] 	lookupTimeSig:mean 	4.1214285714286
scalar Network.dyn_peer[2] 	lookupStabilitySig:mean 	0.81685227805948
scalar Network.dyn_peer[2] 	lookupHopsSig:mean 	40.285714285714
scalar Network.dyn_peer[3] 	lookupTimeSig:mean 	3.8736842105263
scalar Network.dyn_peer[3] 	lookupStabilitySig:mean 	0.87089454112452
scalar Network.dyn_peer[3] 	lookupHopsSig:mean 	37.789473684211
scalar Network.dyn_peer[4] 	lookupTimeSig:mean 	3.7176470588235
scalar Network.dyn_peer[4] 	lookupStabilitySig:mean 	0.86584101258503
scalar Network.dyn_peer[4] 	lookupHopsSig:mean 	36.235294117647
scalar Network.dyn_peer[5] 	lookupTimeSig:mean 	4.7545454545455
scalar Network.dyn_peer[5] 	lookupStabilitySig:mean 	0.77592588419264
scalar Network.dyn_peer[5] 	lookupHopsSig:mean 	46.636363636364
scalar Network.dyn_peer[6] 	lookupTimeSig:mean 	2.3045454545455
scalar Network.dyn_peer[6] 	lookupStabilitySig:mean 	0.87725427050397
scalar Network.dyn_peer[6] 	lookupHopsSig:mean 	22.090909090909
scalar Network.dyn_peer[7] 	lookupTimeSig:mean 	4.175
scalar Network.dyn_peer[7] 	lookupStabilitySig:mean 	0.88346918183379
scalar Network.dyn_peer[7] 	lookupHopsSig:mean 	40.8125
scalar Network.dyn_peer[8] 	lookupTimeSig:mean 	3.2952380952381
scalar Network.dyn_peer[8] 	lookupStabilitySig:mean 	0.89168583758597
scalar Network.dyn_peer[8] 	lookupHopsSig:mean 	32
scalar Network.dyn_peer[9] 	lookupTimeSig:mean 	2.435
scalar Network.dyn_peer[9] 	lookupStabilitySig:mean 	0.90753617561422
scalar Network.dyn_peer[9] 	lookupHopsSig:mean 	23.4
scalar Network.dyn_peer[10] 	lookupTimeSig:mean 	3.6823529411765
scalar Network.dyn_peer[10] 	lookupStabilitySig:mean 	0.89363010499887
scalar Network.dyn_peer[10] 	lookupHopsSig:mean 	35.882352941176
scalar Network.dyn_peer[11] 	lookupTimeSig:mean 	3.6434782608696
scalar Network.dyn_peer[11] 	lookupStabilitySig:mean 	0.88177497198036
scalar Network.dyn_peer[11] 	lookupHopsSig:mean 	35.478260869565
scalar Network.dyn_peer[12] 	lookupTimeSig:mean 	1.8307692307692
scalar Network.dyn_peer[12] 	lookupStabilitySig:mean 	0.82308470018996
scalar Network.dyn_peer[12] 	lookupHopsSig:mean 	17.384615384615
scalar Network.dyn_peer[13] 	lookupTimeSig:mean 	3.8111111111111
scalar Network.dyn_peer[13] 	lookupStabilitySig:mean 	0.84921865452391
scalar Network.dyn_peer[13] 	lookupHopsSig:mean 	37.166666666667
scalar Network.dyn_peer[14] 	lookupTimeSig:mean 	3.3933333333333
scalar Network.dyn_peer[14] 	lookupStabilitySig:mean 	0.85673304911082
scalar Network.dyn_peer[14] 	lookupHopsSig:mean 	33
scalar Network.dyn_peer[15] 	lookupTimeSig:mean 	3.1115384615385
scalar Network.dyn_peer[15] 	lookupStabilitySig:mean 	0.90227876861508
scalar Network.dyn_peer[15] 	lookupHopsSig:mean 	30.153846153846
scalar Network.dyn_peer[16] 	lookupTimeSig:mean 	4.2111111111111
scalar Network.dyn_peer[16] 	lookupStabilitySig:mean 	0.88355158103837
scalar Network.dyn_peer[16] 	lookupHopsSig:mean 	41.166666666667
scalar Network.dyn_peer[17] 	lookupTimeSig:mean 	3.85
scalar Network.dyn_peer[17] 	lookupStabilitySig:mean 	0.88569730506279
scalar Network.dyn_peer[17] 	lookupHopsSig:mean 	37.55
scalar Network.dyn_peer[18] 	lookupTimeSig:mean 	1.8266666666667
scalar Network.dyn_peer[18] 	lookupStabilitySig:mean 	0.84643883546814
scalar Network.dyn_peer[18] 	lookupHopsSig:mean 	17.333333333333
scalar Network.dyn_peer[19] 	lookupTimeSig:mean 	3.6458333333333
scalar Network.dyn_peer[19] 	lookupStabilitySig:mean 	0.91818501538364
scalar Network.dyn_peer[19] 	lookupHopsSig:mean 	35.5
scalar Network.dyn_peer[20] 	lookupTimeSig:mean 	2.35
scalar Network.dyn_peer[20] 	lookupStabilitySig:mean 	0.89467251338323
scalar Network.dyn_peer[20] 	lookupHopsSig:mean 	22.555555555556
scalar Network.dyn_peer[21] 	lookupTimeSig:mean 	4.1
scalar Network.dyn_peer[21] 	lookupStabilitySig:mean 	0.91066604845512
scalar Network.dyn_peer[21] 	lookupHopsSig:mean 	40.038461538462
scalar Network.dyn_peer[22] 	lookupTimeSig:mean 	2.985
scalar Network.dyn_peer[22] 	lookupStabilitySig:mean 	0.87861566638458
scalar Network.dyn_peer[22] 	lookupHopsSig:mean 	28.9
scalar Network.dyn_peer[23] 	lookupTimeSig:mean 	3.2736842105263
scalar Network.dyn_peer[23] 	lookupStabilitySig:mean 	0.87907209483858
scalar Network.dyn_peer[23] 	lookupHopsSig:mean 	31.789473684211
scalar Network.dyn_peer[24] 	lookupTimeSig:mean 	2.995
scalar Network.dyn_peer[24] 	lookupStabilitySig:mean 	0.88168200647924
scalar Network.dyn_peer[24] 	lookupHopsSig:mean 	29
scalar Network.dyn_peer[25] 	lookupTimeSig:mean 	2.7842105263158
scalar Network.dyn_peer[25] 	lookupStabilitySig:mean 	0.91305898955876
scalar Network.dyn_peer[25] 	lookupHopsSig:mean 	26.894736842105
scalar Network.dyn_peer[26] 	lookupTimeSig:mean 	3.204347826087
scalar Network.dyn_peer[26] 	lookupStabilitySig:mean 	0.91402814391515
scalar Network.dyn_peer[26] 	lookupHopsSig:mean 	31.086956521739
scalar Network.dyn_peer[27] 	lookupTimeSig:mean 	3.5608695652174
scalar Network.dyn_peer[27] 	lookupStabilitySig:mean 	0.91669045493979
scalar Network.dyn_peer[27] 	lookupHopsSig:mean 	34.652173913043
scalar Network.dyn_peer[28] 	lookupTimeSig:mean 	4.5058823529412
scalar Network.dyn_peer[28] 	lookupStabilitySig:mean 	0.9084627519033
scalar Network.dyn_peer[28] 	lookupHopsSig:mean 	44.117647058824
scalar Network.dyn_peer[29] 	lookupTimeSig:mean 	2.2
scalar Network.dyn_peer[29] 	lookupStabilitySig:mean 	0.91705168520143
scalar Network.dyn_peer[29] 	lookupHopsSig:mean 	21.045454545455
scalar Network.dyn_peer[30] 	lookupTimeSig:mean 	2.86875
scalar Network.dyn_peer[30] 	lookupStabilitySig:mean 	0.86844959837617
scalar Network.dyn_peer[30] 	lookupHopsSig:mean 	27.75
scalar Network.dyn_peer[31] 	lookupTimeSig:mean 	2.8076923076923
scalar Network.dyn_peer[31] 	lookupStabilitySig:mean 	0.86025256405656
scalar Network.dyn_peer[31] 	lookupHopsSig:mean 	27.153846153846
scalar Network.dyn_peer[32] 	lookupTimeSig:mean 	3.2153846153846
scalar Network.dyn_peer[32] 	lookupStabilitySig:mean 	0.84576449113397
scalar Network.dyn_peer[32] 	lookupHopsSig:mean 	31.230769230769
scalar Network.dyn_peer[33] 	lookupTimeSig:mean 	3.62
scalar Network.dyn_peer[33] 	lookupStabilitySig:mean 	0.88396777708549
scalar Network.dyn_peer[33] 	lookupHopsSig:mean 	35.25
scalar Network.dyn_peer[34] 	lookupTimeSig:mean 	3.8
scalar Network.dyn_peer[34] 	lookupStabilitySig:mean 	0.91298697105376
scalar Network.dyn_peer[34] 	lookupHopsSig:mean 	37.05
scalar Network.dyn_peer[35] 	lookupTimeSig:mean 	2.662962962963
scalar Network.dyn_peer[35] 	lookupStabilitySig:mean 	0.93570308124267
scalar Network.dyn_peer[35] 	lookupHopsSig:mean 	25.666666666667
scalar Network.dyn_peer[36] 	lookupTimeSig:mean 	3.4210526315789
scalar Network.dyn_peer[36] 	lookupStabilitySig:mean 	0.8992740352589
scalar Network.dyn_peer[36] 	lookupHopsSig:mean 	33.263157894737
scalar Network.dyn_peer[37] 	lookupTimeSig:mean 	2.8315789473684
scalar Network.dyn_peer[37] 	lookupStabilitySig:mean 	0.88361866766048
scalar Network.dyn_peer[37] 	lookupHopsSig:mean 	27.368421052632
scalar Network.dyn_peer[38] 	lookupTimeSig:mean 	2.2722222222222
scalar Network.dyn_peer[38] 	lookupStabilitySig:mean 	0.87578120817327
scalar Network.dyn_peer[38] 	lookupHopsSig:mean 	21.777777777778
scalar Network.dyn_peer[39] 	lookupTimeSig:mean 	4.2461538461538
scalar Network.dyn_peer[39] 	lookupStabilitySig:mean 	0.91459002813253
scalar Network.dyn_peer[39] 	lookupHopsSig:mean 	41.5
scalar Network.dyn_peer[40] 	lookupTimeSig:mean 	2.06
scalar Network.dyn_peer[40] 	lookupStabilitySig:mean 	0.89761828789487
scalar Network.dyn_peer[40] 	lookupHopsSig:mean 	19.65
scalar Network.dyn_peer[41] 	lookupTimeSig:mean 	3.8208333333333
scalar Network.dyn_peer[41] 	lookupStabilitySig:mean 	0.90902286504085
scalar Network.dyn_peer[41] 	lookupHopsSig:mean 	37.25
scalar Network.dyn_peer[42] 	lookupTimeSig:mean 	2.6761904761905
scalar Network.dyn_peer[42] 	lookupStabilitySig:mean 	0.91558849361415
scalar Network.dyn_peer[42] 	lookupHopsSig:mean 	25.809523809524
scalar Network.dyn_peer[43] 	lookupTimeSig:mean 	3.4571428571429
scalar Network.dyn_peer[43] 	lookupStabilitySig:mean 	0.86775390630854
scalar Network.dyn_peer[43] 	lookupHopsSig:mean 	33.642857142857
scalar Network.dyn_peer[44] 	lookupTimeSig:mean 	3.5818181818182
scalar Network.dyn_peer[44] 	lookupStabilitySig:mean 	0.91584116106176
scalar Network.dyn_peer[44] 	lookupHopsSig:mean 	34.863636363636
scalar Network.dyn_peer[45] 	lookupTimeSig:mean 	2.0409090909091
scalar Network.dyn_peer[45] 	lookupStabilitySig:mean 	0.91389219197233
scalar Network.dyn_peer[45] 	lookupHopsSig:mean 	19.454545454545
scalar Network.dyn_peer[46] 	lookupTimeSig:mean 	3.6181818181818
scalar Network.dyn_peer[46] 	lookupStabilitySig:mean 	0.92771861475723
scalar Network.dyn_peer[46] 	lookupHopsSig:mean 	35.227272727273
scalar Network.dyn_peer[47] 	lookupTimeSig:mean 	3.4733333333333
scalar Network.dyn_peer[47] 	lookupStabilitySig:mean 	0.94241104907123
scalar Network.dyn_peer[47] 	lookupHopsSig:mean 	33.766666666667
scalar Network.dyn_peer[48] 	lookupTimeSig:mean 	4.1
scalar Network.dyn_peer[48] 	lookupStabilitySig:mean 	0.88916110403507
scalar Network.dyn_peer[48] 	lookupHopsSig:mean 	40.058823529412
scalar Network.dyn_peer[49] 	lookupTimeSig:mean 	3.7689655172414
scalar Network.dyn_peer[49] 	lookupStabilitySig:mean 	0.94765459670252
scalar Network.dyn_peer[49] 	lookupHopsSig:mean 	36.724137931034
scalar Network.dyn_peer[50] 	lookupTimeSig:mean 	3.628
scalar Network.dyn_peer[50] 	lookupStabilitySig:mean 	0.92465349704958
scalar Network.dyn_peer[50] 	lookupHopsSig:mean 	35.32
scalar Network.dyn_peer[51] 	lookupTimeSig:mean 	3.1625
scalar Network.dyn_peer[51] 	lookupStabilitySig:mean 	0.89031295647146
scalar Network.dyn_peer[51] 	lookupHopsSig:mean 	30.6875
scalar Network.dyn_peer[52] 	lookupTimeSig:mean 	3.7176470588235
scalar Network.dyn_peer[52] 	lookupStabilitySig:mean 	0.89729752920239
scalar Network.dyn_peer[52] 	lookupHopsSig:mean 	36.235294117647
scalar Network.dyn_peer[53] 	lookupTimeSig:mean 	3.58
scalar Network.dyn_peer[53] 	lookupStabilitySig:mean 	0.9372473937925
scalar Network.dyn_peer[53] 	lookupHopsSig:mean 	34.85
scalar Network.dyn_peer[54] 	lookupTimeSig:mean 	3.2413793103448
scalar Network.dyn_peer[54] 	lookupStabilitySig:mean 	0.92506630561347
scalar Network.dyn_peer[54] 	lookupHopsSig:mean 	31.448275862069
scalar Network.dyn_peer[55] 	lookupTimeSig:mean 	2.8529411764706
scalar Network.dyn_peer[55] 	lookupStabilitySig:mean 	0.91355312167776
scalar Network.dyn_peer[55] 	lookupHopsSig:mean 	27.588235294118
scalar Network.dyn_peer[56] 	lookupTimeSig:mean 	2.60625
scalar Network.dyn_peer[56] 	lookupStabilitySig:mean 	0.90124345621734
scalar Network.dyn_peer[56] 	lookupHopsSig:mean 	25.125
scalar Network.dyn_peer[57] 	lookupTimeSig:mean 	2.6647058823529
scalar Network.dyn_peer[57] 	lookupStabilitySig:mean 	0.90924667685827
scalar Network.dyn_peer[57] 	lookupHopsSig:mean 	25.705882352941
scalar Network.dyn_peer[58] 	lookupTimeSig:mean 	2.5263157894737
scalar Network.dyn_peer[58] 	lookupStabilitySig:mean 	0.91315470306864
scalar Network.dyn_peer[58] 	lookupHopsSig:mean 	24.315789473684
scalar Network.dyn_peer[59] 	lookupTimeSig:mean 	1.9681818181818
scalar Network.dyn_peer[59] 	lookupStabilitySig:mean 	0.92328217670067
scalar Network.dyn_peer[59] 	lookupHopsSig:mean 	18.727272727273
scalar Network.dyn_peer[60] 	lookupTimeSig:mean 	2.9111111111111
scalar Network.dyn_peer[60] 	lookupStabilitySig:mean 	0.92202814474823
scalar Network.dyn_peer[60] 	lookupHopsSig:mean 	28.148148148148
scalar Network.dyn_peer[61] 	lookupTimeSig:mean 	2.4842105263158
scalar Network.dyn_peer[61] 	lookupStabilitySig:mean 	0.9119438628274
scalar Network.dyn_peer[61] 	lookupHopsSig:mean 	23.894736842105
scalar Network.dyn_peer[62] 	lookupTimeSig:mean 	3.38
scalar Network.dyn_peer[62] 	lookupStabilitySig:mean 	0.9272734986851
scalar Network.dyn_peer[62] 	lookupHopsSig:mean 	32.85
scalar Network.dyn_peer[63] 	lookupTimeSig:mean 	2.247619047619
scalar Network.dyn_peer[63] 	lookupStabilitySig:mean 	0.91672688423257
scalar Network.dyn_peer[63] 	lookupHopsSig:mean 	21.52380952381
scalar Network.dyn_peer[64] 	lookupTimeSig:mean 	3.75
scalar Network.dyn_peer[64] 	lookupStabilitySig:mean 	0.93111983978694
scalar Network.dyn_peer[64] 	lookupHopsSig:mean 	36.541666666667
scalar Network.dyn_peer[65] 	lookupTimeSig:mean 	3.3692307692308
scalar Network.dyn_peer[65] 	lookupStabilitySig:mean 	0.94337321529075
scalar Network.dyn_peer[65] 	lookupHopsSig:mean 	32.730769230769
scalar Network.dyn_peer[66] 	lookupTimeSig:mean 	3.1777777777778
scalar Network.dyn_peer[66] 	lookupStabilitySig:mean 	0.94197096540248
scalar Network.dyn_peer[66] 	lookupHopsSig:mean 	30.814814814815
scalar Network.dyn_peer[67] 	lookupTimeSig:mean 	3.3666666666667
scalar Network.dyn_peer[67] 	lookupStabilitySig:mean 	0.926386137371
scalar Network.dyn_peer[67] 	lookupHopsSig:mean 	32.714285714286
scalar Network.dyn_peer[68] 	lookupTimeSig:mean 	3.6
scalar Network.dyn_peer[68] 	lookupStabilitySig:mean 	0.91842871904373
scalar Network.dyn_peer[68] 	lookupHopsSig:mean 	35.04347826087
scalar Network.dyn_peer[69] 	lookupTimeSig:mean 	3.5266666666667
scalar Network.dyn_peer[69] 	lookupStabilitySig:mean 	0.94436219072134
scalar Network.dyn_peer[69] 	lookupHopsSig:mean 	34.3
scalar Network.dyn_peer[70] 	lookupTimeSig:mean 	2.6260869565217
scalar Network.dyn_peer[70] 	lookupStabilitySig:mean 	0.93923940303047
scalar Network.dyn_peer[70] 	lookupHopsSig:mean 	25.304347826087
scalar Network.dyn_peer[71] 	lookupTimeSig:mean 	3.2259259259259
scalar Network.dyn_peer[71] 	lookupStabilitySig:mean 	0.93813195779782
scalar Network.dyn_peer[71] 	lookupHopsSig:mean 	31.296296296296
scalar Network.dyn_peer[72] 	lookupTimeSig:mean 	2.3055555555556
scalar Network.dyn_peer[72] 	lookupStabilitySig:mean 	0.93909447733313
scalar Network.dyn_peer[72] 	lookupHopsSig:mean 	22.111111111111
scalar Network.dyn_peer[73] 	lookupTimeSig:mean 	2.51875
scalar Network.dyn_peer[73] 	lookupStabilitySig:mean 	0.90584231039975
scalar Network.dyn_peer[73] 	lookupHopsSig:mean 	24.25
scalar Network.dyn_peer[74] 	lookupTimeSig:mean 	2.825
scalar Network.dyn_peer[74] 	lookupStabilitySig:mean 	0.83138614305062
scalar Network.dyn_peer[74] 	lookupHopsSig:mean 	27.375
scalar Network.dyn_peer[75] 	lookupTimeSig:mean 	2.875
scalar Network.dyn_peer[75] 	lookupStabilitySig:mean 	0.90442000253825
scalar Network.dyn_peer[75] 	lookupHopsSig:mean 	27.8125
scalar Network.dyn_peer[76] 	lookupTimeSig:mean 	2.8
scalar Network.dyn_peer[76] 	lookupStabilitySig:mean 	0.92667810766337
scalar Network.dyn_peer[76] 	lookupHopsSig:mean 	27.041666666667
scalar Network.dyn_peer[77] 	lookupTimeSig:mean 	2.4714285714286
scalar Network.dyn_peer[77] 	lookupStabilitySig:mean 	0.90372733939356
scalar Network.dyn_peer[77] 	lookupHopsSig:mean 	23.785714285714
scalar Network.dyn_peer[78] 	lookupTimeSig:mean 	2.4266666666667
scalar Network.dyn_peer[78] 	lookupStabilitySig:mean 	0.91019508726895
scalar Network.dyn_peer[78] 	lookupHopsSig:mean 	23.333333333333
scalar Network.dyn_peer[79] 	lookupTimeSig:mean 	3.6521739130435
scalar Network.dyn_peer[79] 	lookupStabilitySig:mean 	0.93408841767308
scalar Network.dyn_peer[79] 	lookupHopsSig:mean 	35.565217391304
scalar Network.dyn_peer[80] 	lookupTimeSig:mean 	2.95
scalar Network.dyn_peer[80] 	lookupStabilitySig:mean 	0.93805756650302
scalar Network.dyn_peer[80] 	lookupHopsSig:mean 	28.541666666667
scalar Network.dyn_peer[81] 	lookupTimeSig:mean 	4.2555555555556
scalar Network.dyn_peer[81] 	lookupStabilitySig:mean 	0.95028537413519
scalar Network.dyn_peer[81] 	lookupHopsSig:mean 	41.592592592593
scalar Network.dyn_peer[82] 	lookupTimeSig:mean 	3.1913043478261
scalar Network.dyn_peer[82] 	lookupStabilitySig:mean 	0.93654502210025
scalar Network.dyn_peer[82] 	lookupHopsSig:mean 	30.95652173913
scalar Network.dyn_peer[83] 	lookupTimeSig:mean 	3.316
scalar Network.dyn_peer[83] 	lookupStabilitySig:mean 	0.94368835732806
scalar Network.dyn_peer[83] 	lookupHopsSig:mean 	32.2
scalar Network.dyn_peer[84] 	lookupTimeSig:mean 	3.97
scalar Network.dyn_peer[84] 	lookupStabilitySig:mean 	0.92995356977917
scalar Network.dyn_peer[84] 	lookupHopsSig:mean 	38.75
scalar Network.dyn_peer[85] 	lookupTimeSig:mean 	3.2894736842105
scalar Network.dyn_peer[85] 	lookupStabilitySig:mean 	0.93247125632326
scalar Network.dyn_peer[85] 	lookupHopsSig:mean 	31.947368421053
scalar Network.dyn_peer[86] 	lookupTimeSig:mean 	3.605
scalar Network.dyn_peer[86] 	lookupStabilitySig:mean 	0.92629310259363
scalar Network.dyn_peer[86] 	lookupHopsSig:mean 	35.1
scalar Network.dyn_peer[87] 	lookupTimeSig:mean 	4.3333333333333
scalar Network.dyn_peer[87] 	lookupStabilitySig:mean 	0.9276157626605
scalar Network.dyn_peer[87] 	lookupHopsSig:mean 	42.380952380952
scalar Network.dyn_peer[88] 	lookupTimeSig:mean 	4.1047619047619
scalar Network.dyn_peer[88] 	lookupStabilitySig:mean 	0.93606788891235
scalar Network.dyn_peer[88] 	lookupHopsSig:mean 	40.095238095238
scalar Network.dyn_peer[89] 	lookupTimeSig:mean 	4.0421052631579
scalar Network.dyn_peer[89] 	lookupStabilitySig:mean 	0.92650190871944
scalar Network.dyn_peer[89] 	lookupHopsSig:mean 	39.473684210526
scalar Network.dyn_peer[90] 	lookupTimeSig:mean 	3.047619047619
scalar Network.dyn_peer[90] 	lookupStabilitySig:mean 	0.93778102660906
scalar Network.dyn_peer[90] 	lookupHopsSig:mean 	29.52380952381
scalar Network.dyn_peer[91] 	lookupTimeSig:mean 	1.6352941176471
scalar Network.dyn_peer[91] 	lookupStabilitySig:mean 	0.92650090338772
scalar Network.dyn_peer[91] 	lookupHopsSig:mean 	15.411764705882
scalar Network.dyn_peer[92] 	lookupTimeSig:mean 	3.5733333333333
scalar Network.dyn_peer[92] 	lookupStabilitySig:mean 	0.90577151103256
scalar Network.dyn_peer[92] 	lookupHopsSig:mean 	34.8
scalar Network.dyn_peer[93] 	lookupTimeSig:mean 	3.7115384615385
scalar Network.dyn_peer[93] 	lookupStabilitySig:mean 	0.94199160208854
scalar Network.dyn_peer[93] 	lookupHopsSig:mean 	36.153846153846
scalar Network.dyn_peer[94] 	lookupTimeSig:mean 	4.0045454545455
scalar Network.dyn_peer[94] 	lookupStabilitySig:mean 	0.94681207071566
scalar Network.dyn_peer[94] 	lookupHopsSig:mean 	39.090909090909
scalar Network.dyn_peer[95] 	lookupTimeSig:mean 	3.05
scalar Network.dyn_peer[95] 	lookupStabilitySig:mean 	0.87467313995585
scalar Network.dyn_peer[95] 	lookupHopsSig:mean 	29.6
scalar Network.dyn_peer[96] 	lookupTimeSig:mean 	2.5111111111111
scalar Network.dyn_peer[96] 	lookupStabilitySig:mean 	0.94642220305589
scalar Network.dyn_peer[96] 	lookupHopsSig:mean 	24.148148148148
scalar Network.dyn_peer[97] 	lookupTimeSig:mean 	3.7055555555556
scalar Network.dyn_peer[97] 	lookupStabilitySig:mean 	0.92165277230864
scalar Network.dyn_peer[97] 	lookupHopsSig:mean 	36.111111111111
scalar Network.dyn_peer[98] 	lookupTimeSig:mean 	3.5083333333333
scalar Network.dyn_peer[98] 	lookupStabilitySig:mean 	0.95220536921746
scalar Network.dyn_peer[98] 	lookupHopsSig:mean 	34.125
scalar Network.dyn_peer[99] 	lookupTimeSig:mean 	2.2111111111111
scalar Network.dyn_peer[99] 	lookupStabilitySig:mean 	0.88489735178236
scalar Network.dyn_peer[99] 	lookupHopsSig:mean 	21.222222222222
scalar Network.dyn_peer[100] 	lookupTimeSig:mean 	2.4
scalar Network.dyn_peer[100] 	lookupStabilitySig:mean 	0.93847563254854
scalar Network.dyn_peer[100] 	lookupHopsSig:mean 	23.055555555556
scalar Network.dyn_peer[101] 	lookupTimeSig:mean 	2.24375
scalar Network.dyn_peer[101] 	lookupStabilitySig:mean 	0.92021799943177
scalar Network.dyn_peer[101] 	lookupHopsSig:mean 	21.5
scalar Network.dyn_peer[102] 	lookupTimeSig:mean 	3.4
scalar Network.dyn_peer[102] 	lookupStabilitySig:mean 	0.95281931246502
scalar Network.dyn_peer[102] 	lookupHopsSig:mean 	33.034482758621
scalar Network.dyn_peer[103] 	lookupTimeSig:mean 	3.63
scalar Network.dyn_peer[103] 	lookupStabilitySig:mean 	0.93550050884951
scalar Network.dyn_peer[103] 	lookupHopsSig:mean 	35.35
scalar Network.dyn_peer[104] 	lookupTimeSig:mean 	3.8235294117647
scalar Network.dyn_peer[104] 	lookupStabilitySig:mean 	0.91931169659502
scalar Network.dyn_peer[104] 	lookupHopsSig:mean 	37.294117647059
scalar Network.dyn_peer[105] 	lookupTimeSig:mean 	2.3714285714286
scalar Network.dyn_peer[105] 	lookupStabilitySig:mean 	0.92354921715534
scalar Network.dyn_peer[105] 	lookupHopsSig:mean 	22.785714285714
scalar Network.dyn_peer[106] 	lookupTimeSig:mean 	2.6555555555556
scalar Network.dyn_peer[106] 	lookupStabilitySig:mean 	0.95150969023558
scalar Network.dyn_peer[106] 	lookupHopsSig:mean 	25.611111111111
scalar Network.dyn_peer[107] 	lookupTimeSig:mean 	3.1
scalar Network.dyn_peer[107] 	lookupStabilitySig:mean 	0.91612940898631
scalar Network.dyn_peer[107] 	lookupHopsSig:mean 	30.083333333333
scalar Network.dyn_peer[108] 	lookupTimeSig:mean 	3.23125
scalar Network.dyn_peer[108] 	lookupStabilitySig:mean 	0.92118109809599
scalar Network.dyn_peer[108] 	lookupHopsSig:mean 	31.375
scalar Network.dyn_peer[109] 	lookupTimeSig:mean 	3.49375
scalar Network.dyn_peer[109] 	lookupStabilitySig:mean 	0.94142551673576
scalar Network.dyn_peer[109] 	lookupHopsSig:mean 	34
scalar Network.dyn_peer[110] 	lookupTimeSig:mean 	2.6764705882353
scalar Network.dyn_peer[110] 	lookupStabilitySig:mean 	0.92145211531726
scalar Network.dyn_peer[110] 	lookupHopsSig:mean 	25.823529411765
scalar Network.dyn_peer[111] 	lookupTimeSig:mean 	2.82
scalar Network.dyn_peer[111] 	lookupStabilitySig:mean 	0.92006076357017
scalar Network.dyn_peer[111] 	lookupHopsSig:mean 	27.266666666667
scalar Network.dyn_peer[112] 	lookupTimeSig:mean 	2.3214285714286
scalar Network.dyn_peer[112] 	lookupStabilitySig:mean 	0.91902967921591
scalar Network.dyn_peer[112] 	lookupHopsSig:mean 	22.285714285714
scalar Network.dyn_peer[113] 	lookupTimeSig:mean 	3.0555555555556
scalar Network.dyn_peer[113] 	lookupStabilitySig:mean 	0.95600723817996
scalar Network.dyn_peer[113] 	lookupHopsSig:mean 	29.611111111111
scalar Network.dyn_peer[114] 	lookupTimeSig:mean 	3.9
scalar Network.dyn_peer[114] 	lookupStabilitySig:mean 	0.93866700421725
scalar Network.dyn_peer[114] 	lookupHopsSig:mean 	38.052631578947
scalar Network.dyn_peer[115] 	lookupTimeSig:mean 	4.66875
scalar Network.dyn_peer[115] 	lookupStabilitySig:mean 	0.93685022639693
scalar Network.dyn_peer[115] 	lookupHopsSig:mean 	45.75
scalar Network.dyn_peer[116] 	lookupTimeSig:mean 	1.49
scalar Network.dyn_peer[116] 	lookupStabilitySig:mean 	0.91789556760341
scalar Network.dyn_peer[116] 	lookupHopsSig:mean 	14
scalar Network.dyn_peer[117] 	lookupTimeSig:mean 	3.5136363636364
scalar Network.dyn_peer[117] 	lookupStabilitySig:mean 	0.94164826065323
scalar Network.dyn_peer[117] 	lookupHopsSig:mean 	34.181818181818
scalar Network.dyn_peer[118] 	lookupTimeSig:mean 	1.8933333333333
scalar Network.dyn_peer[118] 	lookupStabilitySig:mean 	0.93139297462379
scalar Network.dyn_peer[118] 	lookupHopsSig:mean 	18
scalar Network.dyn_peer[119] 	lookupTimeSig:mean 	3.1263157894737
scalar Network.dyn_peer[119] 	lookupStabilitySig:mean 	0.94313674722798
scalar Network.dyn_peer[119] 	lookupHopsSig:mean 	30.315789473684
scalar Network.dyn_peer[120] 	lookupTimeSig:mean 	3.8263157894737
scalar Network.dyn_peer[120] 	lookupStabilitySig:mean 	0.9460716450734
scalar Network.dyn_peer[120] 	lookupHopsSig:mean 	37.315789473684
scalar Network.dyn_peer[121] 	lookupTimeSig:mean 	2.9045454545455
scalar Network.dyn_peer[121] 	lookupStabilitySig:mean 	0.94644490256906
scalar Network.dyn_peer[121] 	lookupHopsSig:mean 	28.090909090909
scalar Network.dyn_peer[122] 	lookupTimeSig:mean 	3.9695652173913
scalar Network.dyn_peer[122] 	lookupStabilitySig:mean 	0.95261329440805
scalar Network.dyn_peer[122] 	lookupHopsSig:mean 	38.739130434783
scalar Network.dyn_peer[123] 	lookupTimeSig:mean 	3.3
scalar Network.dyn_peer[123] 	lookupStabilitySig:mean 	0.96241529553663
scalar Network.dyn_peer[123] 	lookupHopsSig:mean 	32.035714285714
scalar Network.dyn_peer[124] 	lookupTimeSig:mean 	2.585
scalar Network.dyn_peer[124] 	lookupStabilitySig:mean 	0.94382360016461
scalar Network.dyn_peer[124] 	lookupHopsSig:mean 	24.9
scalar Network.dyn_peer[125] 	lookupTimeSig:mean 	3.3625
scalar Network.dyn_peer[125] 	lookupStabilitySig:mean 	0.94744559544779
scalar Network.dyn_peer[125] 	lookupHopsSig:mean 	32.666666666667
scalar Network.dyn_peer[126] 	lookupTimeSig:mean 	2.784375
scalar Network.dyn_peer[126] 	lookupStabilitySig:mean 	0.95639031584142
scalar Network.dyn_peer[126] 	lookupHopsSig:mean 	26.875
scalar Network.dyn_peer[127] 	lookupTimeSig:mean 	3.1272727272727
scalar Network.dyn_peer[127] 	lookupStabilitySig:mean 	0.94402158910419
scalar Network.dyn_peer[127] 	lookupHopsSig:mean 	30.318181818182
scalar Network.dyn_peer[128] 	lookupTimeSig:mean 	2.9444444444444
scalar Network.dyn_peer[128] 	lookupStabilitySig:mean 	0.9355129860859
scalar Network.dyn_peer[128] 	lookupHopsSig:mean 	28.5
scalar Network.dyn_peer[129] 	lookupTimeSig:mean 	2.6791666666667
scalar Network.dyn_peer[129] 	lookupStabilitySig:mean 	0.95682581339255
scalar Network.dyn_peer[129] 	lookupHopsSig:mean 	25.833333333333
scalar Network.dyn_peer[130] 	lookupTimeSig:mean 	3.0947368421053
scalar Network.dyn_peer[130] 	lookupStabilitySig:mean 	0.94084267593969
scalar Network.dyn_peer[130] 	lookupHopsSig:mean 	30
scalar Network.dyn_peer[131] 	lookupTimeSig:mean 	3.8958333333333
scalar Network.dyn_peer[131] 	lookupStabilitySig:mean 	0.95861833633777
scalar Network.dyn_peer[131] 	lookupHopsSig:mean 	38
scalar Network.dyn_peer[132] 	lookupTimeSig:mean 	3.3035714285714
scalar Network.dyn_peer[132] 	lookupStabilitySig:mean 	0.9546904768379
scalar Network.dyn_peer[132] 	lookupHopsSig:mean 	32.071428571429
scalar Network.dyn_peer[133] 	lookupTimeSig:mean 	3.5130434782609
scalar Network.dyn_peer[133] 	lookupStabilitySig:mean 	0.94548164472065
scalar Network.dyn_peer[133] 	lookupHopsSig:mean 	34.173913043478
scalar Network.dyn_peer[134] 	lookupTimeSig:mean 	2.4
scalar Network.dyn_peer[134] 	lookupStabilitySig:mean 	0.95364577308064
scalar Network.dyn_peer[134] 	lookupHopsSig:mean 	23.05
scalar Network.dyn_peer[135] 	lookupTimeSig:mean 	3.6678571428571
scalar Network.dyn_peer[135] 	lookupStabilitySig:mean 	0.9594695088121
scalar Network.dyn_peer[135] 	lookupHopsSig:mean 	35.714285714286
scalar Network.dyn_peer[136] 	lookupTimeSig:mean 	3.0185185185185
scalar Network.dyn_peer[136] 	lookupStabilitySig:mean 	0.95928935365562
scalar Network.dyn_peer[136] 	lookupHopsSig:mean 	29.222222222222
scalar Network.dyn_peer[137] 	lookupTimeSig:mean 	2.0592592592593
scalar Network.dyn_peer[137] 	lookupStabilitySig:mean 	0.96213614813018
scalar Network.dyn_peer[137] 	lookupHopsSig:mean 	19.62962962963
scalar Network.dyn_peer[138] 	lookupTimeSig:mean 	3
scalar Network.dyn_peer[138] 	lookupStabilitySig:mean 	0.92574699691807
scalar Network.dyn_peer[138] 	lookupHopsSig:mean 	29.066666666667
scalar Network.dyn_peer[139] 	lookupTimeSig:mean 	3.3666666666667
scalar Network.dyn_peer[139] 	lookupStabilitySig:mean 	0.94857060716539
scalar Network.dyn_peer[139] 	lookupHopsSig:mean 	32.722222222222
scalar Network.dyn_peer[140] 	lookupTimeSig:mean 	3.0409090909091
scalar Network.dyn_peer[140] 	lookupStabilitySig:mean 	0.94705745789476
scalar Network.dyn_peer[140] 	lookupHopsSig:mean 	29.454545454545
scalar Network.dyn_peer[141] 	lookupTimeSig:mean 	4.2645161290323
scalar Network.dyn_peer[141] 	lookupStabilitySig:mean 	0.95670384369911
scalar Network.dyn_peer[141] 	lookupHopsSig:mean 	41.677419354839
scalar Network.dyn_peer[142] 	lookupTimeSig:mean 	2.2578947368421
scalar Network.dyn_peer[142] 	lookupStabilitySig:mean 	0.94718652273724
scalar Network.dyn_peer[142] 	lookupHopsSig:mean 	21.631578947368
scalar Network.dyn_peer[143] 	lookupTimeSig:mean 	3.6454545454545
scalar Network.dyn_peer[143] 	lookupStabilitySig:mean 	0.95763735707045
scalar Network.dyn_peer[143] 	lookupHopsSig:mean 	35.5
scalar Network.dyn_peer[144] 	lookupTimeSig:mean 	3.5333333333333
scalar Network.dyn_peer[144] 	lookupStabilitySig:mean 	0.95947614409616
scalar Network.dyn_peer[144] 	lookupHopsSig:mean 	34.37037037037
scalar Network.dyn_peer[145] 	lookupTimeSig:mean 	4.0666666666667
scalar Network.dyn_peer[145] 	lookupStabilitySig:mean 	0.95588991955932
scalar Network.dyn_peer[145] 	lookupHopsSig:mean 	39.708333333333
scalar Network.dyn_peer[146] 	lookupTimeSig:mean 	3.2814814814815
scalar Network.dyn_peer[146] 	lookupStabilitySig:mean 	0.95845300131219
scalar Network.dyn_peer[146] 	lookupHopsSig:mean 	31.851851851852
scalar Network.dyn_peer[147] 	lookupTimeSig:mean 	2.6705882352941
scalar Network.dyn_peer[147] 	lookupStabilitySig:mean 	0.94043142380029
scalar Network.dyn_peer[147] 	lookupHopsSig:mean 	25.764705882353
scalar Network.dyn_peer[148] 	lookupTimeSig:mean 	2.4785714285714
scalar Network.dyn_peer[148] 	lookupStabilitySig:mean 	0.96289016573324
scalar Network.dyn_peer[148] 	lookupHopsSig:mean 	23.821428571429
scalar Network.dyn_peer[149] 	lookupTimeSig:mean 	3.4315789473684
scalar Network.dyn_peer[149] 	lookupStabilitySig:mean 	0.94118261650376
scalar Network.dyn_peer[149] 	lookupHopsSig:mean 	33.368421052632
scalar Network.dyn_peer[150] 	lookupTimeSig:mean 	1.84375
scalar Network.dyn_peer[150] 	lookupStabilitySig:mean 	0.93663231152459
scalar Network.dyn_peer[150] 	lookupHopsSig:mean 	17.5
scalar Network.dyn_peer[151] 	lookupTimeSig:mean 	3.496
scalar Network.dyn_peer[151] 	lookupStabilitySig:mean 	0.95806527497247
scalar Network.dyn_peer[151] 	lookupHopsSig:mean 	34
scalar Network.dyn_peer[152] 	lookupTimeSig:mean 	1.81
scalar Network.dyn_peer[152] 	lookupStabilitySig:mean 	0.95013856507139
scalar Network.dyn_peer[152] 	lookupHopsSig:mean 	17.15
scalar Network.dyn_peer[153] 	lookupTimeSig:mean 	3.17
scalar Network.dyn_peer[153] 	lookupStabilitySig:mean 	0.94309375910088
scalar Network.dyn_peer[153] 	lookupHopsSig:mean 	30.75
scalar Network.dyn_peer[154] 	lookupTimeSig:mean 	3.6038461538462
scalar Network.dyn_peer[154] 	lookupStabilitySig:mean 	0.96099319230192
scalar Network.dyn_peer[154] 	lookupHopsSig:mean 	35.076923076923
scalar Network.dyn_peer[155] 	lookupTimeSig:mean 	2.925
scalar Network.dyn_peer[155] 	lookupStabilitySig:mean 	0.92876913538203
scalar Network.dyn_peer[155] 	lookupHopsSig:mean 	28.3125
scalar Network.dyn_peer[156] 	lookupTimeSig:mean 	2.2045454545455
scalar Network.dyn_peer[156] 	lookupStabilitySig:mean 	0.95391075997031
scalar Network.dyn_peer[156] 	lookupHopsSig:mean 	21.090909090909
scalar Network.dyn_peer[157] 	lookupTimeSig:mean 	2.708
scalar Network.dyn_peer[157] 	lookupStabilitySig:mean 	0.95725204218179
scalar Network.dyn_peer[157] 	lookupHopsSig:mean 	26.12
scalar Network.dyn_peer[158] 	lookupTimeSig:mean 	3.9095238095238
scalar Network.dyn_peer[158] 	lookupStabilitySig:mean 	0.95438963544161
scalar Network.dyn_peer[158] 	lookupHopsSig:mean 	38.142857142857
scalar Network.dyn_peer[159] 	lookupTimeSig:mean 	3.0470588235294
scalar Network.dyn_peer[159] 	lookupStabilitySig:mean 	0.95321450246881
scalar Network.dyn_peer[159] 	lookupHopsSig:mean 	29.529411764706
scalar Network.dyn_peer[160] 	lookupTimeSig:mean 	2.4952380952381
scalar Network.dyn_peer[160] 	lookupStabilitySig:mean 	0.95831282697396
scalar Network.dyn_peer[160] 	lookupHopsSig:mean 	24
scalar Network.dyn_peer[161] 	lookupTimeSig:mean 	2.7090909090909
scalar Network.dyn_peer[161] 	lookupStabilitySig:mean 	0.95980962344699
scalar Network.dyn_peer[161] 	lookupHopsSig:mean 	26.136363636364
scalar Network.dyn_peer[162] 	lookupTimeSig:mean 	3.5642857142857
scalar Network.dyn_peer[162] 	lookupStabilitySig:mean 	0.92944182522063
scalar Network.dyn_peer[162] 	lookupHopsSig:mean 	34.714285714286
scalar Network.dyn_peer[163] 	lookupTimeSig:mean 	3.9733333333333
scalar Network.dyn_peer[163] 	lookupStabilitySig:mean 	0.93295996259743
scalar Network.dyn_peer[163] 	lookupHopsSig:mean 	38.8
scalar Network.dyn_peer[164] 	lookupTimeSig:mean 	2.6
scalar Network.dyn_peer[164] 	lookupStabilitySig:mean 	0.95375977932476
scalar Network.dyn_peer[164] 	lookupHopsSig:mean 	25.04
scalar Network.dyn_peer[165] 	lookupTimeSig:mean 	4.232
scalar Network.dyn_peer[165] 	lookupStabilitySig:mean 	0.97240132594481
scalar Network.dyn_peer[165] 	lookupHopsSig:mean 	41.36
scalar Network.dyn_peer[166] 	lookupTimeSig:mean 	2.0818181818182
scalar Network.dyn_peer[166] 	lookupStabilitySig:mean 	0.92682166274806
scalar Network.dyn_peer[166] 	lookupHopsSig:mean 	19.909090909091
scalar Network.dyn_peer[167] 	lookupTimeSig:mean 	3.1190476190476
scalar Network.dyn_peer[167] 	lookupStabilitySig:mean 	0.95688372885897
scalar Network.dyn_peer[167] 	lookupHopsSig:mean 	30.238095238095
scalar Network.dyn_peer[168] 	lookupTimeSig:mean 	3.05
scalar Network.dyn_peer[168] 	lookupStabilitySig:mean 	0.95068999660434
scalar Network.dyn_peer[168] 	lookupHopsSig:mean 	29.55
scalar Network.dyn_peer[169] 	lookupTimeSig:mean 	3.5
scalar Network.dyn_peer[169] 	lookupStabilitySig:mean 	0.95011332314461
scalar Network.dyn_peer[169] 	lookupHopsSig:mean 	34.05
scalar Network.dyn_peer[170] 	lookupTimeSig:mean 	2.3
scalar Network.dyn_peer[170] 	lookupStabilitySig:mean 	0.92866136946787
scalar Network.dyn_peer[170] 	lookupHopsSig:mean 	22.076923076923
scalar Network.dyn_peer[171] 	lookupTimeSig:mean 	2.5081081081081
scalar Network.dyn_peer[171] 	lookupStabilitySig:mean 	0.97345835791202
scalar Network.dyn_peer[171] 	lookupHopsSig:mean 	24.108108108108
scalar Network.dyn_peer[172] 	lookupTimeSig:mean 	3.3333333333333
scalar Network.dyn_peer[172] 	lookupStabilitySig:mean 	0.95937600878447
scalar Network.dyn_peer[172] 	lookupHopsSig:mean 	32.37037037037
scalar Network.dyn_peer[173] 	lookupTimeSig:mean 	4.7222222222222
scalar Network.dyn_peer[173] 	lookupStabilitySig:mean 	0.95400934358541
scalar Network.dyn_peer[173] 	lookupHopsSig:mean 	46.277777777778
scalar Network.dyn_peer[174] 	lookupTimeSig:mean 	2.0875
scalar Network.dyn_peer[174] 	lookupStabilitySig:mean 	0.92752686061431
scalar Network.dyn_peer[174] 	lookupHopsSig:mean 	20
scalar Network.dyn_peer[175] 	lookupTimeSig:mean 	2.7263157894737
scalar Network.dyn_peer[175] 	lookupStabilitySig:mean 	0.95362626815117
scalar Network.dyn_peer[175] 	lookupHopsSig:mean 	26.315789473684
scalar Network.dyn_peer[176] 	lookupTimeSig:mean 	3.0962962962963
scalar Network.dyn_peer[176] 	lookupStabilitySig:mean 	0.96221650608695
scalar Network.dyn_peer[176] 	lookupHopsSig:mean 	30
scalar Network.dyn_peer[177] 	lookupTimeSig:mean 	4.2736842105263
scalar Network.dyn_peer[177] 	lookupStabilitySig:mean 	0.94847536216931
scalar Network.dyn_peer[177] 	lookupHopsSig:mean 	41.789473684211
scalar Network.dyn_peer[178] 	lookupTimeSig:mean 	3.6571428571429
scalar Network.dyn_peer[178] 	lookupStabilitySig:mean 	0.96013993817559
scalar Network.dyn_peer[178] 	lookupHopsSig:mean 	35.619047619048
scalar Network.dyn_peer[179] 	lookupTimeSig:mean 	4.2826086956522
scalar Network.dyn_peer[179] 	lookupStabilitySig:mean 	0.95302136328942
scalar Network.dyn_peer[179] 	lookupHopsSig:mean 	41.869565217391
scalar Network.dyn_peer[180] 	lookupTimeSig:mean 	3.5153846153846
scalar Network.dyn_peer[180] 	lookupStabilitySig:mean 	0.94379384113619
scalar Network.dyn_peer[180] 	lookupHopsSig:mean 	34.230769230769
scalar Network.dyn_peer[181] 	lookupTimeSig:mean 	3.4666666666667
scalar Network.dyn_peer[181] 	lookupStabilitySig:mean 	0.96158006085482
scalar Network.dyn_peer[181] 	lookupHopsSig:mean 	33.714285714286
scalar Network.dyn_peer[182] 	lookupTimeSig:mean 	3.5
scalar Network.dyn_peer[182] 	lookupStabilitySig:mean 	0.96103702604093
scalar Network.dyn_peer[182] 	lookupHopsSig:mean 	34.045454545455
scalar Network.dyn_peer[183] 	lookupTimeSig:mean 	3.8592592592593
scalar Network.dyn_peer[183] 	lookupStabilitySig:mean 	0.96284369399547
scalar Network.dyn_peer[183] 	lookupHopsSig:mean 	37.62962962963
scalar Network.dyn_peer[184] 	lookupTimeSig:mean 	4.5952380952381
scalar Network.dyn_peer[184] 	lookupStabilitySig:mean 	0.95767501324216
scalar Network.dyn_peer[184] 	lookupHopsSig:mean 	45
scalar Network.dyn_peer[185] 	lookupTimeSig:mean 	3.0428571428571
scalar Network.dyn_peer[185] 	lookupStabilitySig:mean 	0.96688292988776
scalar Network.dyn_peer[185] 	lookupHopsSig:mean 	29.464285714286
scalar Network.dyn_peer[186] 	lookupTimeSig:mean 	3.2541666666667
scalar Network.dyn_peer[186] 	lookupStabilitySig:mean 	0.95874619743942
scalar Network.dyn_peer[186] 	lookupHopsSig:mean 	31.583333333333
scalar Network.dyn_peer[187] 	lookupTimeSig:mean 	4.2583333333333
scalar Network.dyn_peer[187] 	lookupStabilitySig:mean 	0.93297691945918
scalar Network.dyn_peer[187] 	lookupHopsSig:mean 	41.666666666667
scalar Network.dyn_peer[188] 	lookupTimeSig:mean 	3.265
scalar Network.dyn_peer[188] 	lookupStabilitySig:mean 	0.96861302302568
scalar Network.dyn_peer[188] 	lookupHopsSig:mean 	31.7
scalar Network.dyn_peer[189] 	lookupTimeSig:mean 	1.9636363636364
scalar Network.dyn_peer[189] 	lookupStabilitySig:mean 	0.93600224635818
scalar Network.dyn_peer[189] 	lookupHopsSig:mean 	18.727272727273
scalar Network.dyn_peer[190] 	lookupTimeSig:mean 	2.6666666666667
scalar Network.dyn_peer[190] 	lookupStabilitySig:mean 	0.94358861929116
scalar Network.dyn_peer[190] 	lookupHopsSig:mean 	25.733333333333
scalar Network.dyn_peer[191] 	lookupTimeSig:mean 	2.905
scalar Network.dyn_peer[191] 	lookupStabilitySig:mean 	0.9527720560669
scalar Network.dyn_peer[191] 	lookupHopsSig:mean 	28.1
scalar Network.dyn_peer[192] 	lookupTimeSig:mean 	2.9105263157895
scalar Network.dyn_peer[192] 	lookupStabilitySig:mean 	0.97481414935503
scalar Network.dyn_peer[192] 	lookupHopsSig:mean 	28.157894736842
scalar Network.dyn_peer[193] 	lookupTimeSig:mean 	2.6153846153846
scalar Network.dyn_peer[193] 	lookupStabilitySig:mean 	0.96330692921765
scalar Network.dyn_peer[193] 	lookupHopsSig:mean 	25.192307692308
scalar Network.dyn_peer[194] 	lookupTimeSig:mean 	2.65
scalar Network.dyn_peer[194] 	lookupStabilitySig:mean 	0.96035605852376
scalar Network.dyn_peer[194] 	lookupHopsSig:mean 	25.5625
scalar Network.dyn_peer[195] 	lookupTimeSig:mean 	3.1130434782609
scalar Network.dyn_peer[195] 	lookupStabilitySig:mean 	0.95556687725627
scalar Network.dyn_peer[195] 	lookupHopsSig:mean 	30.173913043478
scalar Network.dyn_peer[196] 	lookupTimeSig:mean 	4.8857142857143
scalar Network.dyn_peer[196] 	lookupStabilitySig:mean 	0.95939893899153
scalar Network.dyn_peer[196] 	lookupHopsSig:mean 	47.928571428571
scalar Network.dyn_peer[197] 	lookupTimeSig:mean 	2.0928571428571
scalar Network.dyn_peer[197] 	lookupStabilitySig:mean 	0.9526851969505
scalar Network.dyn_peer[197] 	lookupHopsSig:mean 	20
scalar Network.dyn_peer[198] 	lookupTimeSig:mean 	3.62
scalar Network.dyn_peer[198] 	lookupStabilitySig:mean 	0.94646205413155
scalar Network.dyn_peer[198] 	lookupHopsSig:mean 	35.3
scalar Network.dyn_peer[199] 	lookupTimeSig:mean 	3.1826086956522
scalar Network.dyn_peer[199] 	lookupStabilitySig:mean 	0.95950666497178
scalar Network.dyn_peer[199] 	lookupHopsSig:mean 	30.869565217391
scalar Network.dyn_peer[200] 	lookupTimeSig:mean 	3.6
scalar Network.dyn_peer[200] 	lookupStabilitySig:mean 	0.95891298274953
scalar Network.dyn_peer[200] 	lookupHopsSig:mean 	35.047619047619
scalar Network.dyn_peer[201] 	lookupTimeSig:mean 	3.0235294117647
scalar Network.dyn_peer[201] 	lookupStabilitySig:mean 	0.94999175043503
scalar Network.dyn_peer[201] 	lookupHopsSig:mean 	29.294117647059
scalar Network.dyn_peer[202] 	lookupTimeSig:mean 	3.06
scalar Network.dyn_peer[202] 	lookupStabilitySig:mean 	0.97442201644881
scalar Network.dyn_peer[202] 	lookupHopsSig:mean 	29.633333333333
scalar Network.dyn_peer[203] 	lookupTimeSig:mean 	3.444
scalar Network.dyn_peer[203] 	lookupStabilitySig:mean 	0.96948487163521
scalar Network.dyn_peer[203] 	lookupHopsSig:mean 	33.48
scalar Network.dyn_peer[204] 	lookupTimeSig:mean 	3.5142857142857
scalar Network.dyn_peer[204] 	lookupStabilitySig:mean 	0.96519418486527
scalar Network.dyn_peer[204] 	lookupHopsSig:mean 	34.190476190476
scalar Network.dyn_peer[205] 	lookupTimeSig:mean 	3.3590909090909
scalar Network.dyn_peer[205] 	lookupStabilitySig:mean 	0.95740793992247
scalar Network.dyn_peer[205] 	lookupHopsSig:mean 	32.636363636364
scalar Network.dyn_peer[206] 	lookupTimeSig:mean 	3.8714285714286
scalar Network.dyn_peer[206] 	lookupStabilitySig:mean 	0.95695342288707
scalar Network.dyn_peer[206] 	lookupHopsSig:mean 	37.761904761905
scalar Network.dyn_peer[207] 	lookupTimeSig:mean 	3.7
scalar Network.dyn_peer[207] 	lookupStabilitySig:mean 	0.95931756009539
scalar Network.dyn_peer[207] 	lookupHopsSig:mean 	36.058823529412
scalar Network.dyn_peer[208] 	lookupTimeSig:mean 	3.1210526315789
scalar Network.dyn_peer[208] 	lookupStabilitySig:mean 	0.97573471030007
scalar Network.dyn_peer[208] 	lookupHopsSig:mean 	30.236842105263
scalar Network.dyn_peer[209] 	lookupTimeSig:mean 	2.4416666666667
scalar Network.dyn_peer[209] 	lookupStabilitySig:mean 	0.96196323837406
scalar Network.dyn_peer[209] 	lookupHopsSig:mean 	23.458333333333
scalar Network.dyn_peer[210] 	lookupTimeSig:mean 	4.0466666666667
scalar Network.dyn_peer[210] 	lookupStabilitySig:mean 	0.9540068237111
scalar Network.dyn_peer[210] 	lookupHopsSig:mean 	39.533333333333
scalar Network.dyn_peer[211] 	lookupTimeSig:mean 	2.147619047619
scalar Network.dyn_peer[211] 	lookupStabilitySig:mean 	0.96257905638222
scalar Network.dyn_peer[211] 	lookupHopsSig:mean 	20.52380952381
scalar Network.dyn_peer[212] 	lookupTimeSig:mean 	3.3611111111111
scalar Network.dyn_peer[212] 	lookupStabilitySig:mean 	0.97450445675188
scalar Network.dyn_peer[212] 	lookupHopsSig:mean 	32.666666666667
scalar Network.dyn_peer[213] 	lookupTimeSig:mean 	2.285
scalar Network.dyn_peer[213] 	lookupStabilitySig:mean 	0.96136725310935
scalar Network.dyn_peer[213] 	lookupHopsSig:mean 	21.9
scalar Network.dyn_peer[214] 	lookupTimeSig:mean 	3.34
scalar Network.dyn_peer[214] 	lookupStabilitySig:mean 	0.9643605964398
scalar Network.dyn_peer[214] 	lookupHopsSig:mean 	32.44
scalar Network.dyn_peer[215] 	lookupTimeSig:mean 	3.225
scalar Network.dyn_peer[215] 	lookupStabilitySig:mean 	0.95334810638306
scalar Network.dyn_peer[215] 	lookupHopsSig:mean 	31.3
scalar Network.dyn_peer[216] 	lookupTimeSig:mean 	2.14375
scalar Network.dyn_peer[216] 	lookupStabilitySig:mean 	0.95897898834664
scalar Network.dyn_peer[216] 	lookupHopsSig:mean 	20.5
scalar Network.dyn_peer[217] 	lookupTimeSig:mean 	3.7388888888889
scalar Network.dyn_peer[217] 	lookupStabilitySig:mean 	0.96827170677069
scalar Network.dyn_peer[217] 	lookupHopsSig:mean 	36.444444444444
scalar Network.dyn_peer[218] 	lookupTimeSig:mean 	3.5047619047619
scalar Network.dyn_peer[218] 	lookupStabilitySig:mean 	0.95776882019293
scalar Network.dyn_peer[218] 	lookupHopsSig:mean 	34.095238095238
scalar Network.dyn_peer[219] 	lookupTimeSig:mean 	4.2238095238095
scalar Network.dyn_peer[219] 	lookupStabilitySig:mean 	0.96681389354524
scalar Network.dyn_peer[219] 	lookupHopsSig:mean 	41.285714285714
scalar Network.dyn_peer[220] 	lookupTimeSig:mean 	3.0909090909091
scalar Network.dyn_peer[220] 	lookupStabilitySig:mean 	0.96776391068389
scalar Network.dyn_peer[220] 	lookupHopsSig:mean 	29.954545454545
scalar Network.dyn_peer[221] 	lookupTimeSig:mean 	4.32
scalar Network.dyn_peer[221] 	lookupStabilitySig:mean 	0.97577461545588
scalar Network.dyn_peer[221] 	lookupHopsSig:mean 	42.25
scalar Network.dyn_peer[222] 	lookupTimeSig:mean 	2.85
scalar Network.dyn_peer[222] 	lookupStabilitySig:mean 	0.96309771041269
scalar Network.dyn_peer[222] 	lookupHopsSig:mean 	27.55
scalar Network.dyn_peer[223] 	lookupTimeSig:mean 	3.595
scalar Network.dyn_peer[223] 	lookupStabilitySig:mean 	0.95900505176978
scalar Network.dyn_peer[223] 	lookupHopsSig:mean 	35
scalar Network.dyn_peer[224] 	lookupTimeSig:mean 	3.745
scalar Network.dyn_peer[224] 	lookupStabilitySig:mean 	0.96281496502925
scalar Network.dyn_peer[224] 	lookupHopsSig:mean 	36.5
scalar Network.dyn_peer[225] 	lookupTimeSig:mean 	3.9888888888889
scalar Network.dyn_peer[225] 	lookupStabilitySig:mean 	0.95534703091511
scalar Network.dyn_peer[225] 	lookupHopsSig:mean 	38.944444444444
scalar Network.dyn_peer[226] 	lookupTimeSig:mean 	4.95
scalar Network.dyn_peer[226] 	lookupStabilitySig:mean 	0.96635845338945
scalar Network.dyn_peer[226] 	lookupHopsSig:mean 	48.541666666667
scalar Network.dyn_peer[227] 	lookupTimeSig:mean 	3.6173913043478
scalar Network.dyn_peer[227] 	lookupStabilitySig:mean 	0.96463925850517
scalar Network.dyn_peer[227] 	lookupHopsSig:mean 	35.217391304348
scalar Network.dyn_peer[228] 	lookupTimeSig:mean 	2.3384615384615
scalar Network.dyn_peer[228] 	lookupStabilitySig:mean 	0.94103367307868
scalar Network.dyn_peer[228] 	lookupHopsSig:mean 	22.461538461538
scalar Network.dyn_peer[229] 	lookupTimeSig:mean 	3.7105263157895
scalar Network.dyn_peer[229] 	lookupStabilitySig:mean 	0.97206882375145
scalar Network.dyn_peer[229] 	lookupHopsSig:mean 	36.157894736842
scalar Network.dyn_peer[230] 	lookupTimeSig:mean 	3.5857142857143
scalar Network.dyn_peer[230] 	lookupStabilitySig:mean 	0.95599500434141
scalar Network.dyn_peer[230] 	lookupHopsSig:mean 	34.928571428571
scalar Network.dyn_peer[231] 	lookupTimeSig:mean 	3.3928571428571
scalar Network.dyn_peer[231] 	lookupStabilitySig:mean 	0.9432939620622
scalar Network.dyn_peer[231] 	lookupHopsSig:mean 	33
scalar Network.dyn_peer[232] 	lookupTimeSig:mean 	4.3909090909091
scalar Network.dyn_peer[232] 	lookupStabilitySig:mean 	0.95301802579144
scalar Network.dyn_peer[232] 	lookupHopsSig:mean 	43
scalar Network.dyn_peer[233] 	lookupTimeSig:mean 	2.9409090909091
scalar Network.dyn_peer[233] 	lookupStabilitySig:mean 	0.96824817408659
scalar Network.dyn_peer[233] 	lookupHopsSig:mean 	28.454545454545
scalar Network.dyn_peer[234] 	lookupTimeSig:mean 	3.66
scalar Network.dyn_peer[234] 	lookupStabilitySig:mean 	0.95282613299787
scalar Network.dyn_peer[234] 	lookupHopsSig:mean 	35.666666666667
scalar Network.dyn_peer[235] 	lookupTimeSig:mean 	3.5333333333333
scalar Network.dyn_peer[235] 	lookupStabilitySig:mean 	0.96475532771243
scalar Network.dyn_peer[235] 	lookupHopsSig:mean 	34.375
scalar Network.dyn_peer[236] 	lookupTimeSig:mean 	4.1761904761905
scalar Network.dyn_peer[236] 	lookupStabilitySig:mean 	0.96597004103075
scalar Network.dyn_peer[236] 	lookupHopsSig:mean 	40.809523809524
scalar Network.dyn_peer[237] 	lookupTimeSig:mean 	3.1758620689655
scalar Network.dyn_peer[237] 	lookupStabilitySig:mean 	0.97204454658465
scalar Network.dyn_peer[237] 	lookupHopsSig:mean 	30.793103448276
scalar Network.dyn_peer[238] 	lookupTimeSig:mean 	3.7083333333333
scalar Network.dyn_peer[238] 	lookupStabilitySig:mean 	0.97713412716985
scalar Network.dyn_peer[238] 	lookupHopsSig:mean 	36.125
scalar Network.dyn_peer[239] 	lookupTimeSig:mean 	3.2739130434783
scalar Network.dyn_peer[239] 	lookupStabilitySig:mean 	0.9781566013825
scalar Network.dyn_peer[239] 	lookupHopsSig:mean 	31.782608695652
scalar Network.dyn_peer[240] 	lookupTimeSig:mean 	3.4285714285714
scalar Network.dyn_peer[240] 	lookupStabilitySig:mean 	0.93228051252663
scalar Network.dyn_peer[240] 	lookupHopsSig:mean 	33.428571428571
scalar Network.dyn_peer[241] 	lookupTimeSig:mean 	3.9913043478261
scalar Network.dyn_peer[241] 	lookupStabilitySig:mean 	0.96616809839464
scalar Network.dyn_peer[241] 	lookupHopsSig:mean 	38.95652173913
scalar Network.dyn_peer[242] 	lookupTimeSig:mean 	3.6766666666667
scalar Network.dyn_peer[242] 	lookupStabilitySig:mean 	0.97310804618367
scalar Network.dyn_peer[242] 	lookupHopsSig:mean 	35.8
scalar Network.dyn_peer[243] 	lookupTimeSig:mean 	4.1869565217391
scalar Network.dyn_peer[243] 	lookupStabilitySig:mean 	0.96408415254732
scalar Network.dyn_peer[243] 	lookupHopsSig:mean 	40.913043478261
scalar Network.dyn_peer[244] 	lookupTimeSig:mean 	3.7454545454545
scalar Network.dyn_peer[244] 	lookupStabilitySig:mean 	0.96142517315986
scalar Network.dyn_peer[244] 	lookupHopsSig:mean 	36.545454545455
scalar Network.dyn_peer[245] 	lookupTimeSig:mean 	3.9473684210526
scalar Network.dyn_peer[245] 	lookupStabilitySig:mean 	0.96274828865487
scalar Network.dyn_peer[245] 	lookupHopsSig:mean 	38.526315789474
scalar Network.dyn_peer[246] 	lookupTimeSig:mean 	4.3916666666667
scalar Network.dyn_peer[246] 	lookupStabilitySig:mean 	0.94870252356244
scalar Network.dyn_peer[246] 	lookupHopsSig:mean 	43
scalar Network.dyn_peer[247] 	lookupTimeSig:mean 	2.9235294117647
scalar Network.dyn_peer[247] 	lookupStabilitySig:mean 	0.97157776087303
scalar Network.dyn_peer[247] 	lookupHopsSig:mean 	28.294117647059
scalar Network.dyn_peer[248] 	lookupTimeSig:mean 	3.2291666666667
scalar Network.dyn_peer[248] 	lookupStabilitySig:mean 	0.97399633428237
scalar Network.dyn_peer[248] 	lookupHopsSig:mean 	31.333333333333
scalar Network.dyn_peer[249] 	lookupTimeSig:mean 	2.475
scalar Network.dyn_peer[249] 	lookupStabilitySig:mean 	0.96737617884064
scalar Network.dyn_peer[249] 	lookupHopsSig:mean 	23.8
scalar Network.dyn_peer[250] 	lookupTimeSig:mean 	1.9722222222222
scalar Network.dyn_peer[250] 	lookupStabilitySig:mean 	0.97164557901366
scalar Network.dyn_peer[250] 	lookupHopsSig:mean 	18.777777777778
scalar Network.dyn_peer[251] 	lookupTimeSig:mean 	3.2277777777778
scalar Network.dyn_peer[251] 	lookupStabilitySig:mean 	0.96275023987982
scalar Network.dyn_peer[251] 	lookupHopsSig:mean 	31.333333333333
scalar Network.dyn_peer[252] 	lookupTimeSig:mean 	3.9
scalar Network.dyn_peer[252] 	lookupStabilitySig:mean 	0.96023196481953
scalar Network.dyn_peer[252] 	lookupHopsSig:mean 	38.052631578947
scalar Network.dyn_peer[253] 	lookupTimeSig:mean 	2.5090909090909
scalar Network.dyn_peer[253] 	lookupStabilitySig:mean 	0.96045345421457
scalar Network.dyn_peer[253] 	lookupHopsSig:mean 	24.181818181818
scalar Network.dyn_peer[254] 	lookupTimeSig:mean 	3.5727272727273
scalar Network.dyn_peer[254] 	lookupStabilitySig:mean 	0.94652345992455
scalar Network.dyn_peer[254] 	lookupHopsSig:mean 	34.818181818182
scalar Network.dyn_peer[255] 	lookupTimeSig:mean 	2.9444444444444
scalar Network.dyn_peer[255] 	lookupStabilitySig:mean 	0.96661573773923
scalar Network.dyn_peer[255] 	lookupHopsSig:mean 	28.5
scalar Network.dyn_peer[256] 	lookupTimeSig:mean 	3.3625
scalar Network.dyn_peer[256] 	lookupStabilitySig:mean 	0.95525954510958
scalar Network.dyn_peer[256] 	lookupHopsSig:mean 	32.6875
scalar Network.dyn_peer[257] 	lookupTimeSig:mean 	3.224
scalar Network.dyn_peer[257] 	lookupStabilitySig:mean 	0.97377038296312
scalar Network.dyn_peer[257] 	lookupHopsSig:mean 	31.28
scalar Network.dyn_peer[258] 	lookupTimeSig:mean 	3.304347826087
scalar Network.dyn_peer[258] 	lookupStabilitySig:mean 	0.96796904292727
scalar Network.dyn_peer[258] 	lookupHopsSig:mean 	32.086956521739
scalar Network.dyn_peer[259] 	lookupTimeSig:mean 	2.83125
scalar Network.dyn_peer[259] 	lookupStabilitySig:mean 	0.95662304287544
scalar Network.dyn_peer[259] 	lookupHopsSig:mean 	27.375
scalar Network.dyn_peer[260] 	lookupTimeSig:mean 	2.52
scalar Network.dyn_peer[260] 	lookupStabilitySig:mean 	0.97135746966815
scalar Network.dyn_peer[260] 	lookupHopsSig:mean 	24.25
scalar Network.dyn_peer[261] 	lookupTimeSig:mean 	2.74
scalar Network.dyn_peer[261] 	lookupStabilitySig:mean 	0.96039740938383
scalar Network.dyn_peer[261] 	lookupHopsSig:mean 	26.466666666667
scalar Network.dyn_peer[262] 	lookupTimeSig:mean 	2.9333333333333
scalar Network.dyn_peer[262] 	lookupStabilitySig:mean 	0.96692840598795
scalar Network.dyn_peer[262] 	lookupHopsSig:mean 	28.375
scalar Network.dyn_peer[263] 	lookupTimeSig:mean 	3.3736842105263
scalar Network.dyn_peer[263] 	lookupStabilitySig:mean 	0.96410801374402
scalar Network.dyn_peer[263] 	lookupHopsSig:mean 	32.789473684211
scalar Network.dyn_peer[264] 	lookupTimeSig:mean 	3.8176470588235
scalar Network.dyn_peer[264] 	lookupStabilitySig:mean 	0.96154621991274
scalar Network.dyn_peer[264] 	lookupHopsSig:mean 	37.235294117647
scalar Network.dyn_peer[265] 	lookupTimeSig:mean 	2.8052631578947
scalar Network.dyn_peer[265] 	lookupStabilitySig:mean 	0.96984288884376
scalar Network.dyn_peer[265] 	lookupHopsSig:mean 	27.105263157895
scalar Network.dyn_peer[266] 	lookupTimeSig:mean 	1.79
scalar Network.dyn_peer[266] 	lookupStabilitySig:mean 	0.96995407636277
scalar Network.dyn_peer[266] 	lookupHopsSig:mean 	17
scalar Network.dyn_peer[267] 	lookupTimeSig:mean 	2.96
scalar Network.dyn_peer[267] 	lookupStabilitySig:mean 	0.96767099450032
scalar Network.dyn_peer[267] 	lookupHopsSig:mean 	28.666666666667
scalar Network.dyn_peer[268] 	lookupTimeSig:mean 	4.1052631578947
scalar Network.dyn_peer[268] 	lookupStabilitySig:mean 	0.95838466896921
scalar Network.dyn_peer[268] 	lookupHopsSig:mean 	40.105263157895
scalar Network.dyn_peer[269] 	lookupTimeSig:mean 	3.93125
scalar Network.dyn_peer[269] 	lookupStabilitySig:mean 	0.96316822286462
scalar Network.dyn_peer[269] 	lookupHopsSig:mean 	38.375
scalar Network.dyn_peer[270] 	lookupTimeSig:mean 	3.06
scalar Network.dyn_peer[270] 	lookupStabilitySig:mean 	0.96158215722535
scalar Network.dyn_peer[270] 	lookupHopsSig:mean 	29.65
scalar Network.dyn_peer[271] 	lookupTimeSig:mean 	2.9
scalar Network.dyn_peer[271] 	lookupStabilitySig:mean 	0.97098559073897
scalar Network.dyn_peer[271] 	lookupHopsSig:mean 	28.055555555556
scalar Network.dyn_peer[272] 	lookupTimeSig:mean 	2.9315789473684
scalar Network.dyn_peer[272] 	lookupStabilitySig:mean 	0.96297482881499
scalar Network.dyn_peer[272] 	lookupHopsSig:mean 	28.368421052632
scalar Network.dyn_peer[273] 	lookupTimeSig:mean 	3.8071428571429
scalar Network.dyn_peer[273] 	lookupStabilitySig:mean 	0.95042272583981
scalar Network.dyn_peer[273] 	lookupHopsSig:mean 	37.142857142857
scalar Network.dyn_peer[274] 	lookupTimeSig:mean 	3.96875
scalar Network.dyn_peer[274] 	lookupStabilitySig:mean 	0.97023330899538
scalar Network.dyn_peer[274] 	lookupHopsSig:mean 	38.75
scalar Network.dyn_peer[275] 	lookupTimeSig:mean 	4.0833333333333
scalar Network.dyn_peer[275] 	lookupStabilitySig:mean 	0.96905318718766
scalar Network.dyn_peer[275] 	lookupHopsSig:mean 	39.888888888889
scalar Network.dyn_peer[276] 	lookupTimeSig:mean 	2.71875
scalar Network.dyn_peer[276] 	lookupStabilitySig:mean 	0.95882208173134
scalar Network.dyn_peer[276] 	lookupHopsSig:mean 	26.25
scalar Network.dyn_peer[277] 	lookupTimeSig:mean 	2.8227272727273
scalar Network.dyn_peer[277] 	lookupStabilitySig:mean 	0.97398488972844
scalar Network.dyn_peer[277] 	lookupHopsSig:mean 	27.272727272727
scalar Network.dyn_peer[278] 	lookupTimeSig:mean 	3.0625
scalar Network.dyn_peer[278] 	lookupStabilitySig:mean 	0.95664693281287
scalar Network.dyn_peer[278] 	lookupHopsSig:mean 	29.75
scalar Network.dyn_peer[279] 	lookupTimeSig:mean 	3.95
scalar Network.dyn_peer[279] 	lookupStabilitySig:mean 	0.97529813168674
scalar Network.dyn_peer[279] 	lookupHopsSig:mean 	38.555555555556
scalar Network.dyn_peer[280] 	lookupTimeSig:mean 	3.9192307692308
scalar Network.dyn_peer[280] 	lookupStabilitySig:mean 	0.97213218238455
scalar Network.dyn_peer[280] 	lookupHopsSig:mean 	38.230769230769
scalar Network.dyn_peer[281] 	lookupTimeSig:mean 	2.7307692307692
scalar Network.dyn_peer[281] 	lookupStabilitySig:mean 	0.95494356117426
scalar Network.dyn_peer[281] 	lookupHopsSig:mean 	26.384615384615
scalar Network.dyn_peer[282] 	lookupTimeSig:mean 	3.1235294117647
scalar Network.dyn_peer[282] 	lookupStabilitySig:mean 	0.96781338120619
scalar Network.dyn_peer[282] 	lookupHopsSig:mean 	30.294117647059
scalar Network.dyn_peer[283] 	lookupTimeSig:mean 	3.5333333333333
scalar Network.dyn_peer[283] 	lookupStabilitySig:mean 	0.97140544717244
scalar Network.dyn_peer[283] 	lookupHopsSig:mean 	34.380952380952
scalar Network.dyn_peer[284] 	lookupTimeSig:mean 	3.4962962962963
scalar Network.dyn_peer[284] 	lookupStabilitySig:mean 	0.97211772772156
scalar Network.dyn_peer[284] 	lookupHopsSig:mean 	34
scalar Network.dyn_peer[285] 	lookupTimeSig:mean 	3.65
scalar Network.dyn_peer[285] 	lookupStabilitySig:mean 	0.94044631657501
scalar Network.dyn_peer[285] 	lookupHopsSig:mean 	35.666666666667
scalar Network.dyn_peer[286] 	lookupTimeSig:mean 	2.74375
scalar Network.dyn_peer[286] 	lookupStabilitySig:mean 	0.96290025376948
scalar Network.dyn_peer[286] 	lookupHopsSig:mean 	26.5
scalar Network.dyn_peer[287] 	lookupTimeSig:mean 	4.2375
scalar Network.dyn_peer[287] 	lookupStabilitySig:mean 	0.9546975143603
scalar Network.dyn_peer[287] 	lookupHopsSig:mean 	41.4375
scalar Network.dyn_peer[288] 	lookupTimeSig:mean 	4.1478260869565
scalar Network.dyn_peer[288] 	lookupStabilitySig:mean 	0.97504061161864
scalar Network.dyn_peer[288] 	lookupHopsSig:mean 	40.521739130435
scalar Network.dyn_peer[289] 	lookupTimeSig:mean 	3.2961538461538
scalar Network.dyn_peer[289] 	lookupStabilitySig:mean 	0.9763897625425
scalar Network.dyn_peer[289] 	lookupHopsSig:mean 	32
scalar Network.dyn_peer[290] 	lookupTimeSig:mean 	3.86
scalar Network.dyn_peer[290] 	lookupStabilitySig:mean 	0.96369164080049
scalar Network.dyn_peer[290] 	lookupHopsSig:mean 	37.666666666667
scalar Network.dyn_peer[291] 	lookupTimeSig:mean 	2.3571428571429
scalar Network.dyn_peer[291] 	lookupStabilitySig:mean 	0.95756324413898
scalar Network.dyn_peer[291] 	lookupHopsSig:mean 	22.642857142857
scalar Network.dyn_peer[292] 	lookupTimeSig:mean 	2.5576923076923
scalar Network.dyn_peer[292] 	lookupStabilitySig:mean 	0.97596538745207
scalar Network.dyn_peer[292] 	lookupHopsSig:mean 	24.615384615385
scalar Network.dyn_peer[293] 	lookupTimeSig:mean 	2.6555555555556
scalar Network.dyn_peer[293] 	lookupStabilitySig:mean 	0.96888931626583
scalar Network.dyn_peer[293] 	lookupHopsSig:mean 	25.611111111111
scalar Network.dyn_peer[294] 	lookupTimeSig:mean 	3.5185185185185
scalar Network.dyn_peer[294] 	lookupStabilitySig:mean 	0.97858729560135
scalar Network.dyn_peer[294] 	lookupHopsSig:mean 	34.222222222222
scalar Network.dyn_peer[295] 	lookupTimeSig:mean 	2.6529411764706
scalar Network.dyn_peer[295] 	lookupStabilitySig:mean 	0.96021055221996
scalar Network.dyn_peer[295] 	lookupHopsSig:mean 	25.588235294118
scalar Network.dyn_peer[296] 	lookupTimeSig:mean 	3.5294117647059
scalar Network.dyn_peer[296] 	lookupStabilitySig:mean 	0.9671586513081
scalar Network.dyn_peer[296] 	lookupHopsSig:mean 	34.352941176471
scalar Network.dyn_peer[297] 	lookupTimeSig:mean 	2.675
scalar Network.dyn_peer[297] 	lookupStabilitySig:mean 	0.96440712618642
scalar Network.dyn_peer[297] 	lookupHopsSig:mean 	25.8125
scalar Network.dyn_peer[298] 	lookupTimeSig:mean 	2.9666666666667
scalar Network.dyn_peer[298] 	lookupStabilitySig:mean 	0.97503650656325
scalar Network.dyn_peer[298] 	lookupHopsSig:mean 	28.714285714286
scalar Network.dyn_peer[299] 	lookupTimeSig:mean 	2.1285714285714
scalar Network.dyn_peer[299] 	lookupStabilitySig:mean 	0.95277517209096
scalar Network.dyn_peer[299] 	lookupHopsSig:mean 	20.428571428571
scalar Network.dyn_peer[300] 	lookupTimeSig:mean 	2.7888888888889
scalar Network.dyn_peer[300] 	lookupStabilitySig:mean 	0.97478500285393
scalar Network.dyn_peer[300] 	lookupHopsSig:mean 	26.944444444444
scalar Network.dyn_peer[301] 	lookupTimeSig:mean 	2.1545454545455
scalar Network.dyn_peer[301] 	lookupStabilitySig:mean 	0.95424443838949
scalar Network.dyn_peer[301] 	lookupHopsSig:mean 	20.636363636364
scalar Network.dyn_peer[302] 	lookupTimeSig:mean 	5.25
scalar Network.dyn_peer[302] 	lookupStabilitySig:mean 	0.96260375793402
scalar Network.dyn_peer[302] 	lookupHopsSig:mean 	51.583333333333
scalar Network.dyn_peer[303] 	lookupTimeSig:mean 	4.332
scalar Network.dyn_peer[303] 	lookupStabilitySig:mean 	0.97444915028289
scalar Network.dyn_peer[303] 	lookupHopsSig:mean 	42.36
scalar Network.dyn_peer[304] 	lookupTimeSig:mean 	2.625
scalar Network.dyn_peer[304] 	lookupStabilitySig:mean 	0.95382414979395
scalar Network.dyn_peer[304] 	lookupHopsSig:mean 	25.333333333333
scalar Network.dyn_peer[305] 	lookupTimeSig:mean 	2.0703703703704
scalar Network.dyn_peer[305] 	lookupStabilitySig:mean 	0.97418033789533
scalar Network.dyn_peer[305] 	lookupHopsSig:mean 	19.740740740741
scalar Network.dyn_peer[306] 	lookupTimeSig:mean 	2.712
scalar Network.dyn_peer[306] 	lookupStabilitySig:mean 	0.97204626929946
scalar Network.dyn_peer[306] 	lookupHopsSig:mean 	26.16
scalar Network.dyn_peer[307] 	lookupTimeSig:mean 	3.9708333333333
scalar Network.dyn_peer[307] 	lookupStabilitySig:mean 	0.97003822626236
scalar Network.dyn_peer[307] 	lookupHopsSig:mean 	38.75
scalar Network.dyn_peer[308] 	lookupTimeSig:mean 	5.84375
scalar Network.dyn_peer[308] 	lookupStabilitySig:mean 	0.96129549766192
scalar Network.dyn_peer[308] 	lookupHopsSig:mean 	57.5
scalar Network.dyn_peer[309] 	lookupTimeSig:mean 	3.3318181818182
scalar Network.dyn_peer[309] 	lookupStabilitySig:mean 	0.97506639575162
scalar Network.dyn_peer[309] 	lookupHopsSig:mean 	32.363636363636
scalar Network.dyn_peer[310] 	lookupTimeSig:mean 	3.5909090909091
scalar Network.dyn_peer[310] 	lookupStabilitySig:mean 	0.97011193401307
scalar Network.dyn_peer[310] 	lookupHopsSig:mean 	34.954545454545
scalar Network.dyn_peer[311] 	lookupTimeSig:mean 	2.552
scalar Network.dyn_peer[311] 	lookupStabilitySig:mean 	0.9704820600152
scalar Network.dyn_peer[311] 	lookupHopsSig:mean 	24.56
scalar Network.dyn_peer[312] 	lookupTimeSig:mean 	3.36875
scalar Network.dyn_peer[312] 	lookupStabilitySig:mean 	0.96536828295211
scalar Network.dyn_peer[312] 	lookupHopsSig:mean 	32.75
scalar Network.dyn_peer[313] 	lookupTimeSig:mean 	3.7941176470588
scalar Network.dyn_peer[313] 	lookupStabilitySig:mean 	0.96674594256397
scalar Network.dyn_peer[313] 	lookupHopsSig:mean 	37
scalar Network.dyn_peer[314] 	lookupTimeSig:mean 	4.2142857142857
scalar Network.dyn_peer[314] 	lookupStabilitySig:mean 	0.97587044715848
scalar Network.dyn_peer[314] 	lookupHopsSig:mean 	41.178571428571
scalar Network.dyn_peer[315] 	lookupTimeSig:mean 	2.98
scalar Network.dyn_peer[315] 	lookupStabilitySig:mean 	0.97607319825329
scalar Network.dyn_peer[315] 	lookupHopsSig:mean 	28.833333333333
scalar Network.dyn_peer[316] 	lookupTimeSig:mean 	4.0952380952381
scalar Network.dyn_peer[316] 	lookupStabilitySig:mean 	0.96968602381336
scalar Network.dyn_peer[316] 	lookupHopsSig:mean 	40
scalar Network.dyn_peer[317] 	lookupTimeSig:mean 	3.075
scalar Network.dyn_peer[317] 	lookupStabilitySig:mean 	0.9688813429093
scalar Network.dyn_peer[317] 	lookupHopsSig:mean 	29.8
scalar Network.dyn_peer[318] 	lookupTimeSig:mean 	3.5952380952381
scalar Network.dyn_peer[318] 	lookupStabilitySig:mean 	0.9723069095718
scalar Network.dyn_peer[318] 	lookupHopsSig:mean 	35
scalar Network.dyn_peer[319] 	lookupTimeSig:mean 	2.3923076923077
scalar Network.dyn_peer[319] 	lookupStabilitySig:mean 	0.95544381969823
scalar Network.dyn_peer[319] 	lookupHopsSig:mean 	23
scalar Network.dyn_peer[320] 	lookupTimeSig:mean 	2.335
scalar Network.dyn_peer[320] 	lookupStabilitySig:mean 	0.97374758541118
scalar Network.dyn_peer[320] 	lookupHopsSig:mean 	22.4
scalar Network.dyn_peer[321] 	lookupTimeSig:mean 	3.5
scalar Network.dyn_peer[321] 	lookupStabilitySig:mean 	0.9700931502065
scalar Network.dyn_peer[321] 	lookupHopsSig:mean 	34.052631578947
scalar Network.dyn_peer[322] 	lookupTimeSig:mean 	2.9483870967742
scalar Network.dyn_peer[322] 	lookupStabilitySig:mean 	0.97974105367828
scalar Network.dyn_peer[322] 	lookupHopsSig:mean 	28.516129032258
scalar Network.dyn_peer[323] 	lookupTimeSig:mean 	2.53
scalar Network.dyn_peer[323] 	lookupStabilitySig:mean 	0.96991880560527
scalar Network.dyn_peer[323] 	lookupHopsSig:mean 	24.35
scalar Network.dyn_peer[324] 	lookupTimeSig:mean 	2.65
scalar Network.dyn_peer[324] 	lookupStabilitySig:mean 	0.96495457700221
scalar Network.dyn_peer[324] 	lookupHopsSig:mean 	25.6
scalar Network.dyn_peer[325] 	lookupTimeSig:mean 	2.9315789473684
scalar Network.dyn_peer[325] 	lookupStabilitySig:mean 	0.96503950184897
scalar Network.dyn_peer[325] 	lookupHopsSig:mean 	28.368421052632
scalar Network.dyn_peer[326] 	lookupTimeSig:mean 	4.215
scalar Network.dyn_peer[326] 	lookupStabilitySig:mean 	0.96722757457756
scalar Network.dyn_peer[326] 	lookupHopsSig:mean 	41.2
scalar Network.dyn_peer[327] 	lookupTimeSig:mean 	3.324
scalar Network.dyn_peer[327] 	lookupStabilitySig:mean 	0.97750214012805
scalar Network.dyn_peer[327] 	lookupHopsSig:mean 	32.28
scalar Network.dyn_peer[328] 	lookupTimeSig:mean 	3.9941176470588
scalar Network.dyn_peer[328] 	lookupStabilitySig:mean 	0.96754136598012
scalar Network.dyn_peer[328] 	lookupHopsSig:mean 	39
scalar Network.dyn_peer[329] 	lookupTimeSig:mean 	2.895652173913
scalar Network.dyn_peer[329] 	lookupStabilitySig:mean 	0.97313982002822
scalar Network.dyn_peer[329] 	lookupHopsSig:mean 	28
scalar Network.dyn_peer[330] 	lookupTimeSig:mean 	3.045
scalar Network.dyn_peer[330] 	lookupStabilitySig:mean 	0.96531747004483
scalar Network.dyn_peer[330] 	lookupHopsSig:mean 	29.5
scalar Network.dyn_peer[331] 	lookupTimeSig:mean 	2.6888888888889
scalar Network.dyn_peer[331] 	lookupStabilitySig:mean 	0.96370810479857
scalar Network.dyn_peer[331] 	lookupHopsSig:mean 	26
scalar Network.dyn_peer[332] 	lookupTimeSig:mean 	3.5
scalar Network.dyn_peer[332] 	lookupStabilitySig:mean 	0.9767793007195
scalar Network.dyn_peer[332] 	lookupHopsSig:mean 	34.045454545455
scalar Network.dyn_peer[333] 	lookupTimeSig:mean 	3.4307692307692
scalar Network.dyn_peer[333] 	lookupStabilitySig:mean 	0.95605783658819
scalar Network.dyn_peer[333] 	lookupHopsSig:mean 	33.384615384615
scalar Network.dyn_peer[334] 	lookupTimeSig:mean 	4.4095238095238
scalar Network.dyn_peer[334] 	lookupStabilitySig:mean 	0.96746422357059
scalar Network.dyn_peer[334] 	lookupHopsSig:mean 	43.142857142857
scalar Network.dyn_peer[335] 	lookupTimeSig:mean 	3.2285714285714
scalar Network.dyn_peer[335] 	lookupStabilitySig:mean 	0.97639064210567
scalar Network.dyn_peer[335] 	lookupHopsSig:mean 	31.321428571429
scalar Network.dyn_peer[336] 	lookupTimeSig:mean 	2.9208333333333
scalar Network.dyn_peer[336] 	lookupStabilitySig:mean 	0.973263443826
scalar Network.dyn_peer[336] 	lookupHopsSig:mean 	28.25
scalar Network.dyn_peer[337] 	lookupTimeSig:mean 	2.6866666666667
scalar Network.dyn_peer[337] 	lookupStabilitySig:mean 	0.97504398964035
scalar Network.dyn_peer[337] 	lookupHopsSig:mean 	25.933333333333
scalar Network.dyn_peer[338] 	lookupTimeSig:mean 	3.5769230769231
scalar Network.dyn_peer[338] 	lookupStabilitySig:mean 	0.97859476654468
scalar Network.dyn_peer[338] 	lookupHopsSig:mean 	34.807692307692
scalar Network.dyn_peer[339] 	lookupTimeSig:mean 	3.7681818181818
scalar Network.dyn_peer[339] 	lookupStabilitySig:mean 	0.96912227230231
scalar Network.dyn_peer[339] 	lookupHopsSig:mean 	36.727272727273
scalar Network.dyn_peer[340] 	lookupTimeSig:mean 	3.4277777777778
scalar Network.dyn_peer[340] 	lookupStabilitySig:mean 	0.97254461701959
scalar Network.dyn_peer[340] 	lookupHopsSig:mean 	33.333333333333
scalar Network.dyn_peer[341] 	lookupTimeSig:mean 	3.9076923076923
scalar Network.dyn_peer[341] 	lookupStabilitySig:mean 	0.97535362295681
scalar Network.dyn_peer[341] 	lookupHopsSig:mean 	38.115384615385
scalar Network.dyn_peer[342] 	lookupTimeSig:mean 	2.825
scalar Network.dyn_peer[342] 	lookupStabilitySig:mean 	0.97270398812058
scalar Network.dyn_peer[342] 	lookupHopsSig:mean 	27.333333333333
scalar Network.dyn_peer[343] 	lookupTimeSig:mean 	2.41875
scalar Network.dyn_peer[343] 	lookupStabilitySig:mean 	0.97076184683829
scalar Network.dyn_peer[343] 	lookupHopsSig:mean 	23.25
scalar Network.dyn_peer[344] 	lookupTimeSig:mean 	3.21
scalar Network.dyn_peer[344] 	lookupStabilitySig:mean 	0.9727071157773
scalar Network.dyn_peer[344] 	lookupHopsSig:mean 	31.15
scalar Network.dyn_peer[345] 	lookupTimeSig:mean 	2.6555555555556
scalar Network.dyn_peer[345] 	lookupStabilitySig:mean 	0.97577583252375
scalar Network.dyn_peer[345] 	lookupHopsSig:mean 	25.592592592593
scalar Network.dyn_peer[346] 	lookupTimeSig:mean 	4.521875
scalar Network.dyn_peer[346] 	lookupStabilitySig:mean 	0.97943098910036
scalar Network.dyn_peer[346] 	lookupHopsSig:mean 	44.25
scalar Network.dyn_peer[347] 	lookupTimeSig:mean 	3.7047619047619
scalar Network.dyn_peer[347] 	lookupStabilitySig:mean 	0.97119640352737
scalar Network.dyn_peer[347] 	lookupHopsSig:mean 	36.095238095238
scalar Network.dyn_peer[348] 	lookupTimeSig:mean 	3.9333333333333
scalar Network.dyn_peer[348] 	lookupStabilitySig:mean 	0.97020050819653
scalar Network.dyn_peer[348] 	lookupHopsSig:mean 	38.4
scalar Network.dyn_peer[349] 	lookupTimeSig:mean 	3.7857142857143
scalar Network.dyn_peer[349] 	lookupStabilitySig:mean 	0.9662878647879
scalar Network.dyn_peer[349] 	lookupHopsSig:mean 	36.928571428571
scalar Network.dyn_peer[350] 	lookupTimeSig:mean 	4.0076923076923
scalar Network.dyn_peer[350] 	lookupStabilitySig:mean 	0.97813688827535
scalar Network.dyn_peer[350] 	lookupHopsSig:mean 	39.115384615385
scalar Network.dyn_peer[351] 	lookupTimeSig:mean 	2.5090909090909
scalar Network.dyn_peer[351] 	lookupStabilitySig:mean 	0.96257218544964
scalar Network.dyn_peer[351] 	lookupHopsSig:mean 	24.181818181818
scalar Network.dyn_peer[352] 	lookupTimeSig:mean 	2.9258064516129
scalar Network.dyn_peer[352] 	lookupStabilitySig:mean 	0.98120778292463
scalar Network.dyn_peer[352] 	lookupHopsSig:mean 	28.290322580645
scalar Network.dyn_peer[353] 	lookupTimeSig:mean 	3.2458333333333
scalar Network.dyn_peer[353] 	lookupStabilitySig:mean 	0.97275879520263
scalar Network.dyn_peer[353] 	lookupHopsSig:mean 	31.5
scalar Network.dyn_peer[354] 	lookupTimeSig:mean 	3.8470588235294
scalar Network.dyn_peer[354] 	lookupStabilitySig:mean 	0.96672266042408
scalar Network.dyn_peer[354] 	lookupHopsSig:mean 	37.529411764706
scalar Network.dyn_peer[355] 	lookupTimeSig:mean 	3.8882352941176
scalar Network.dyn_peer[355] 	lookupStabilitySig:mean 	0.97573763645692
scalar Network.dyn_peer[355] 	lookupHopsSig:mean 	37.941176470588
scalar Network.dyn_peer[356] 	lookupTimeSig:mean 	2.6555555555556
scalar Network.dyn_peer[356] 	lookupStabilitySig:mean 	0.96862529060389
scalar Network.dyn_peer[356] 	lookupHopsSig:mean 	25.611111111111
scalar Network.dyn_peer[357] 	lookupTimeSig:mean 	3.3538461538462
scalar Network.dyn_peer[357] 	lookupStabilitySig:mean 	0.97349662111195
scalar Network.dyn_peer[357] 	lookupHopsSig:mean 	32.576923076923
scalar Network.dyn_peer[358] 	lookupTimeSig:mean 	3.616
scalar Network.dyn_peer[358] 	lookupStabilitySig:mean 	0.97416648166254
scalar Network.dyn_peer[358] 	lookupHopsSig:mean 	35.2
scalar Network.dyn_peer[359] 	lookupTimeSig:mean 	5.295
scalar Network.dyn_peer[359] 	lookupStabilitySig:mean 	0.96861191042699
scalar Network.dyn_peer[359] 	lookupHopsSig:mean 	52
scalar Network.dyn_peer[360] 	lookupTimeSig:mean 	2.6928571428571
scalar Network.dyn_peer[360] 	lookupStabilitySig:mean 	0.96631599111216
scalar Network.dyn_peer[360] 	lookupHopsSig:mean 	26
scalar Network.dyn_peer[361] 	lookupTimeSig:mean 	4.5916666666667
scalar Network.dyn_peer[361] 	lookupStabilitySig:mean 	0.96143088295745
scalar Network.dyn_peer[361] 	lookupHopsSig:mean 	45
scalar Network.dyn_peer[362] 	lookupTimeSig:mean 	3.5045454545455
scalar Network.dyn_peer[362] 	lookupStabilitySig:mean 	0.97550300338348
scalar Network.dyn_peer[362] 	lookupHopsSig:mean 	34.090909090909
scalar Network.dyn_peer[363] 	lookupTimeSig:mean 	4.25
scalar Network.dyn_peer[363] 	lookupStabilitySig:mean 	0.96304620787435
scalar Network.dyn_peer[363] 	lookupHopsSig:mean 	41.571428571429
scalar Network.dyn_peer[364] 	lookupTimeSig:mean 	3.625
scalar Network.dyn_peer[364] 	lookupStabilitySig:mean 	0.97745964316224
scalar Network.dyn_peer[364] 	lookupHopsSig:mean 	35.291666666667
scalar Network.dyn_peer[365] 	lookupTimeSig:mean 	2.9692307692308
scalar Network.dyn_peer[365] 	lookupStabilitySig:mean 	0.9756878215748
scalar Network.dyn_peer[365] 	lookupHopsSig:mean 	28.730769230769
scalar Network.dyn_peer[366] 	lookupTimeSig:mean 	4.0333333333333
scalar Network.dyn_peer[366] 	lookupStabilitySig:mean 	0.97557936407005
scalar Network.dyn_peer[366] 	lookupHopsSig:mean 	39.375
scalar Network.dyn_peer[367] 	lookupTimeSig:mean 	4.085
scalar Network.dyn_peer[367] 	lookupStabilitySig:mean 	0.9741403625696
scalar Network.dyn_peer[367] 	lookupHopsSig:mean 	39.9
scalar Network.dyn_peer[368] 	lookupTimeSig:mean 	2.50625
scalar Network.dyn_peer[368] 	lookupStabilitySig:mean 	0.97538367791276
scalar Network.dyn_peer[368] 	lookupHopsSig:mean 	24.125
scalar Network.dyn_peer[369] 	lookupTimeSig:mean 	3.975
scalar Network.dyn_peer[369] 	lookupStabilitySig:mean 	0.97178587580565
scalar Network.dyn_peer[369] 	lookupHopsSig:mean 	38.8
scalar Network.dyn_peer[370] 	lookupTimeSig:mean 	2.6185185185185
scalar Network.dyn_peer[370] 	lookupStabilitySig:mean 	0.97778521492836
scalar Network.dyn_peer[370] 	lookupHopsSig:mean 	25.222222222222
scalar Network.dyn_peer[371] 	lookupTimeSig:mean 	4.04
scalar Network.dyn_peer[371] 	lookupStabilitySig:mean 	0.94865061640739
scalar Network.dyn_peer[371] 	lookupHopsSig:mean 	39.6
scalar Network.dyn_peer[372] 	lookupTimeSig:mean 	4.3277777777778
scalar Network.dyn_peer[372] 	lookupStabilitySig:mean 	0.97276358202928
scalar Network.dyn_peer[372] 	lookupHopsSig:mean 	42.333333333333
scalar Network.dyn_peer[373] 	lookupTimeSig:mean 	2.6666666666667
scalar Network.dyn_peer[373] 	lookupStabilitySig:mean 	0.94969935829027
scalar Network.dyn_peer[373] 	lookupHopsSig:mean 	25.777777777778
scalar Network.dyn_peer[374] 	lookupTimeSig:mean 	2.5818181818182
scalar Network.dyn_peer[374] 	lookupStabilitySig:mean 	0.96522364494475
scalar Network.dyn_peer[374] 	lookupHopsSig:mean 	24.909090909091
scalar Network.dyn_peer[375] 	lookupTimeSig:mean 	2.72
scalar Network.dyn_peer[375] 	lookupStabilitySig:mean 	0.96566146109253
scalar Network.dyn_peer[375] 	lookupHopsSig:mean 	26.3
scalar Network.dyn_peer[376] 	lookupTimeSig:mean 	2.8
scalar Network.dyn_peer[376] 	lookupStabilitySig:mean 	0.97562961776857
scalar Network.dyn_peer[376] 	lookupHopsSig:mean 	27.05
scalar Network.dyn_peer[377] 	lookupTimeSig:mean 	2.2095238095238
scalar Network.dyn_peer[377] 	lookupStabilitySig:mean 	0.97516374875115
scalar Network.dyn_peer[377] 	lookupHopsSig:mean 	21.142857142857
scalar Network.dyn_peer[378] 	lookupTimeSig:mean 	2.2071428571429
scalar Network.dyn_peer[378] 	lookupStabilitySig:mean 	0.97355683743288
scalar Network.dyn_peer[378] 	lookupHopsSig:mean 	21.142857142857
scalar Network.dyn_peer[379] 	lookupTimeSig:mean 	3.3423076923077
scalar Network.dyn_peer[379] 	lookupStabilitySig:mean 	0.9785695046079
scalar Network.dyn_peer[379] 	lookupHopsSig:mean 	32.461538461538
scalar Network.dyn_peer[380] 	lookupTimeSig:mean 	2.46
scalar Network.dyn_peer[380] 	lookupStabilitySig:mean 	0.97417502063327
scalar Network.dyn_peer[380] 	lookupHopsSig:mean 	23.65
scalar Network.dyn_peer[381] 	lookupTimeSig:mean 	3.6272727272727
scalar Network.dyn_peer[381] 	lookupStabilitySig:mean 	0.98069469500545
scalar Network.dyn_peer[381] 	lookupHopsSig:mean 	35.318181818182
scalar Network.dyn_peer[382] 	lookupTimeSig:mean 	2.5333333333333
scalar Network.dyn_peer[382] 	lookupStabilitySig:mean 	0.98112768220017
scalar Network.dyn_peer[382] 	lookupHopsSig:mean 	24.375
scalar Network.dyn_peer[383] 	lookupTimeSig:mean 	3.5413793103448
scalar Network.dyn_peer[383] 	lookupStabilitySig:mean 	0.97958038600386
scalar Network.dyn_peer[383] 	lookupHopsSig:mean 	34.448275862069
scalar Network.dyn_peer[384] 	lookupTimeSig:mean 	3.3285714285714
scalar Network.dyn_peer[384] 	lookupStabilitySig:mean 	0.96330978806197
scalar Network.dyn_peer[384] 	lookupHopsSig:mean 	32.357142857143
scalar Network.dyn_peer[385] 	lookupTimeSig:mean 	2.944
scalar Network.dyn_peer[385] 	lookupStabilitySig:mean 	0.98211742425337
scalar Network.dyn_peer[385] 	lookupHopsSig:mean 	28.48
scalar Network.dyn_peer[386] 	lookupTimeSig:mean 	3.076
scalar Network.dyn_peer[386] 	lookupStabilitySig:mean 	0.97650507120416
scalar Network.dyn_peer[386] 	lookupHopsSig:mean 	29.8
scalar Network.dyn_peer[387] 	lookupTimeSig:mean 	3.6727272727273
scalar Network.dyn_peer[387] 	lookupStabilitySig:mean 	0.974143023137
scalar Network.dyn_peer[387] 	lookupHopsSig:mean 	35.772727272727
scalar Network.dyn_peer[388] 	lookupTimeSig:mean 	2.6347826086957
scalar Network.dyn_peer[388] 	lookupStabilitySig:mean 	0.972485727256
scalar Network.dyn_peer[388] 	lookupHopsSig:mean 	25.391304347826
scalar Network.dyn_peer[389] 	lookupTimeSig:mean 	2.5
scalar Network.dyn_peer[389] 	lookupStabilitySig:mean 	0.97076537141887
scalar Network.dyn_peer[389] 	lookupHopsSig:mean 	24.055555555556
scalar Network.dyn_peer[390] 	lookupTimeSig:mean 	3.7181818181818
scalar Network.dyn_peer[390] 	lookupStabilitySig:mean 	0.97085197792727
scalar Network.dyn_peer[390] 	lookupHopsSig:mean 	36.227272727273
scalar Network.dyn_peer[391] 	lookupTimeSig:mean 	1.96875
scalar Network.dyn_peer[391] 	lookupStabilitySig:mean 	0.97346787770221
scalar Network.dyn_peer[391] 	lookupHopsSig:mean 	18.75
scalar Network.dyn_peer[392] 	lookupTimeSig:mean 	2.1631578947368
scalar Network.dyn_peer[392] 	lookupStabilitySig:mean 	0.98405327263754
scalar Network.dyn_peer[392] 	lookupHopsSig:mean 	20.684210526316
scalar Network.dyn_peer[393] 	lookupTimeSig:mean 	4.0384615384615
scalar Network.dyn_peer[393] 	lookupStabilitySig:mean 	0.98128247832378
scalar Network.dyn_peer[393] 	lookupHopsSig:mean 	39.423076923077
scalar Network.dyn_peer[394] 	lookupTimeSig:mean 	4.5826086956522
scalar Network.dyn_peer[394] 	lookupStabilitySig:mean 	0.97453898842366
scalar Network.dyn_peer[394] 	lookupHopsSig:mean 	44.869565217391
scalar Network.dyn_peer[395] 	lookupTimeSig:mean 	2.3846153846154
scalar Network.dyn_peer[395] 	lookupStabilitySig:mean 	0.96416057972237
scalar Network.dyn_peer[395] 	lookupHopsSig:mean 	22.923076923077
scalar Network.dyn_peer[396] 	lookupTimeSig:mean 	5.4941176470588
scalar Network.dyn_peer[396] 	lookupStabilitySig:mean 	0.96511835007764
scalar Network.dyn_peer[396] 	lookupHopsSig:mean 	54
scalar Network.dyn_peer[397] 	lookupTimeSig:mean 	2.395
scalar Network.dyn_peer[397] 	lookupStabilitySig:mean 	0.97361920559779
scalar Network.dyn_peer[397] 	lookupHopsSig:mean 	23
scalar Network.dyn_peer[398] 	lookupTimeSig:mean 	3.559375
scalar Network.dyn_peer[398] 	lookupStabilitySig:mean 	0.98037081615257
scalar Network.dyn_peer[398] 	lookupHopsSig:mean 	34.625
scalar Network.dyn_peer[399] 	lookupTimeSig:mean 	3.4380952380952
scalar Network.dyn_peer[399] 	lookupStabilitySig:mean 	0.97863925420236
scalar Network.dyn_peer[399] 	lookupHopsSig:mean 	33.428571428571
scalar Network.dyn_peer[400] 	lookupTimeSig:mean 	2.8652173913043
scalar Network.dyn_peer[400] 	lookupStabilitySig:mean 	0.9754432850902
scalar Network.dyn_peer[400] 	lookupHopsSig:mean 	27.695652173913
scalar Network.dyn_peer[401] 	lookupTimeSig:mean 	3.3727272727273
scalar Network.dyn_peer[401] 	lookupStabilitySig:mean 	0.96629800139503
scalar Network.dyn_peer[401] 	lookupHopsSig:mean 	32.818181818182
scalar Network.dyn_peer[402] 	lookupTimeSig:mean 	4.1352941176471
scalar Network.dyn_peer[402] 	lookupStabilitySig:mean 	0.97227770443458
scalar Network.dyn_peer[402] 	lookupHopsSig:mean 	40.411764705882
scalar Network.dyn_peer[403] 	lookupTimeSig:mean 	3.6444444444444
scalar Network.dyn_peer[403] 	lookupStabilitySig:mean 	0.97162596866191
scalar Network.dyn_peer[403] 	lookupHopsSig:mean 	35.5
scalar Network.dyn_peer[404] 	lookupTimeSig:mean 	1.925
scalar Network.dyn_peer[404] 	lookupStabilitySig:mean 	0.95949527653283
scalar Network.dyn_peer[404] 	lookupHopsSig:mean 	18.375
scalar Network.dyn_peer[405] 	lookupTimeSig:mean 	3.7714285714286
scalar Network.dyn_peer[405] 	lookupStabilitySig:mean 	0.97614571405575
scalar Network.dyn_peer[405] 	lookupHopsSig:mean 	36.785714285714
scalar Network.dyn_peer[406] 	lookupTimeSig:mean 	3.1181818181818
[...]
scalar Network.dyn_peer[9898] 	lookupHopsSig:mean 	52.166666666667
scalar Network.dyn_peer[9899] 	lookupTimeSig:mean 	8.44
scalar Network.dyn_peer[9899] 	lookupStabilitySig:mean 	0.99052568334155
scalar Network.dyn_peer[9899] 	lookupHopsSig:mean 	83.6
scalar Network.dyn_peer[9900] 	lookupTimeSig:mean 	5.9375
scalar Network.dyn_peer[9900] 	lookupStabilitySig:mean 	0.99299513877486
scalar Network.dyn_peer[9900] 	lookupHopsSig:mean 	58.5
scalar Network.dyn_peer[9901] 	lookupTimeSig:mean 	5.7818181818182
scalar Network.dyn_peer[9901] 	lookupStabilitySig:mean 	0.99360879777338
scalar Network.dyn_peer[9901] 	lookupHopsSig:mean 	56.909090909091
scalar Network.dyn_peer[9902] 	lookupTimeSig:mean 	5.5857142857143
scalar Network.dyn_peer[9902] 	lookupStabilitySig:mean 	0.99320902595563
scalar Network.dyn_peer[9902] 	lookupHopsSig:mean 	55
scalar Network.dyn_peer[9903] 	lookupTimeSig:mean 	4.9222222222222
scalar Network.dyn_peer[9903] 	lookupStabilitySig:mean 	0.99412517707484
scalar Network.dyn_peer[9903] 	lookupHopsSig:mean 	48.333333333333
scalar Network.dyn_peer[9904] 	lookupTimeSig:mean 	5.1285714285714
scalar Network.dyn_peer[9904] 	lookupStabilitySig:mean 	0.99378419690765
scalar Network.dyn_peer[9904] 	lookupHopsSig:mean 	50.428571428571
scalar Network.dyn_peer[9905] 	lookupTimeSig:mean 	4.9285714285714
scalar Network.dyn_peer[9905] 	lookupStabilitySig:mean 	0.99388862767124
scalar Network.dyn_peer[9905] 	lookupHopsSig:mean 	48.428571428571
scalar Network.dyn_peer[9906] 	lookupTimeSig:mean 	8.6714285714286
scalar Network.dyn_peer[9906] 	lookupStabilitySig:mean 	0.99036845185661
scalar Network.dyn_peer[9906] 	lookupHopsSig:mean 	85.857142857143
scalar Network.dyn_peer[9907] 	lookupTimeSig:mean 	4.825
scalar Network.dyn_peer[9907] 	lookupStabilitySig:mean 	0.99448279299152
scalar Network.dyn_peer[9907] 	lookupHopsSig:mean 	47.333333333333
scalar Network.dyn_peer[9908] 	lookupTimeSig:mean 	3.7857142857143
scalar Network.dyn_peer[9908] 	lookupStabilitySig:mean 	0.99515016996052
scalar Network.dyn_peer[9908] 	lookupHopsSig:mean 	37
scalar Network.dyn_peer[9909] 	lookupTimeSig:mean 	4.83
scalar Network.dyn_peer[9909] 	lookupStabilitySig:mean 	0.99431899931515
scalar Network.dyn_peer[9909] 	lookupHopsSig:mean 	47.4
scalar Network.dyn_peer[9910] 	lookupTimeSig:mean 	3.7846153846154
scalar Network.dyn_peer[9910] 	lookupStabilitySig:mean 	0.99557118381983
scalar Network.dyn_peer[9910] 	lookupHopsSig:mean 	36.923076923077
scalar Network.dyn_peer[9911] 	lookupTimeSig:mean 	2.9875
scalar Network.dyn_peer[9911] 	lookupStabilitySig:mean 	0.99617131267587
scalar Network.dyn_peer[9911] 	lookupHopsSig:mean 	29
scalar Network.dyn_peer[9912] 	lookupTimeSig:mean 	3.3111111111111
scalar Network.dyn_peer[9912] 	lookupStabilitySig:mean 	0.99582214834582
scalar Network.dyn_peer[9912] 	lookupHopsSig:mean 	32.222222222222
scalar Network.dyn_peer[9913] 	lookupTimeSig:mean 	4.6875
scalar Network.dyn_peer[9913] 	lookupStabilitySig:mean 	0.9942593620799
scalar Network.dyn_peer[9913] 	lookupHopsSig:mean 	46
scalar Network.dyn_peer[9914] 	lookupTimeSig:mean 	2.8833333333333
scalar Network.dyn_peer[9914] 	lookupStabilitySig:mean 	0.99613099114504
scalar Network.dyn_peer[9914] 	lookupHopsSig:mean 	28
scalar Network.dyn_peer[9915] 	lookupTimeSig:mean 	6.8181818181818
scalar Network.dyn_peer[9915] 	lookupStabilitySig:mean 	0.99249232808043
scalar Network.dyn_peer[9915] 	lookupHopsSig:mean 	67.272727272727
scalar Network.dyn_peer[9916] 	lookupTimeSig:mean 	6.5857142857143
scalar Network.dyn_peer[9916] 	lookupStabilitySig:mean 	0.99220676535541
scalar Network.dyn_peer[9916] 	lookupHopsSig:mean 	65
scalar Network.dyn_peer[9917] 	lookupTimeSig:mean 	3.3666666666667
scalar Network.dyn_peer[9917] 	lookupStabilitySig:mean 	0.99558036605595
scalar Network.dyn_peer[9917] 	lookupHopsSig:mean 	32.833333333333
scalar Network.dyn_peer[9918] 	lookupTimeSig:mean 	7.1583333333333
scalar Network.dyn_peer[9918] 	lookupStabilitySig:mean 	0.99227236005633
scalar Network.dyn_peer[9918] 	lookupHopsSig:mean 	70.666666666667
scalar Network.dyn_peer[9919] 	lookupTimeSig:mean 	5.025
scalar Network.dyn_peer[9919] 	lookupStabilitySig:mean 	0.993352787802
scalar Network.dyn_peer[9919] 	lookupHopsSig:mean 	49.5
scalar Network.dyn_peer[9920] 	lookupTimeSig:mean 	4.7176470588235
scalar Network.dyn_peer[9920] 	lookupStabilitySig:mean 	0.99488399272976
scalar Network.dyn_peer[9920] 	lookupHopsSig:mean 	46.235294117647
scalar Network.dyn_peer[9921] 	lookupTimeSig:mean 	6.6
scalar Network.dyn_peer[9921] 	lookupStabilitySig:mean 	0.99217396602035
scalar Network.dyn_peer[9921] 	lookupHopsSig:mean 	65.142857142857
scalar Network.dyn_peer[9922] 	lookupTimeSig:mean 	4.0545454545455
scalar Network.dyn_peer[9922] 	lookupStabilitySig:mean 	0.99517527777194
scalar Network.dyn_peer[9922] 	lookupHopsSig:mean 	39.636363636364
scalar Network.dyn_peer[9923] 	lookupTimeSig:mean 	5.075
scalar Network.dyn_peer[9923] 	lookupStabilitySig:mean 	0.99429152226852
scalar Network.dyn_peer[9923] 	lookupHopsSig:mean 	49.833333333333
scalar Network.dyn_peer[9924] 	lookupTimeSig:mean 	6.2714285714286
scalar Network.dyn_peer[9924] 	lookupStabilitySig:mean 	0.99263044017633
scalar Network.dyn_peer[9924] 	lookupHopsSig:mean 	61.857142857143
scalar Network.dyn_peer[9925] 	lookupTimeSig:mean 	5.1142857142857
scalar Network.dyn_peer[9925] 	lookupStabilitySig:mean 	0.99371847117852
scalar Network.dyn_peer[9925] 	lookupHopsSig:mean 	50.285714285714
scalar Network.dyn_peer[9926] 	lookupTimeSig:mean 	4.775
scalar Network.dyn_peer[9926] 	lookupStabilitySig:mean 	0.99419508653227
scalar Network.dyn_peer[9926] 	lookupHopsSig:mean 	46.875
scalar Network.dyn_peer[9927] 	lookupTimeSig:mean 	6.1916666666667
scalar Network.dyn_peer[9927] 	lookupStabilitySig:mean 	0.99316010875433
scalar Network.dyn_peer[9927] 	lookupHopsSig:mean 	61
scalar Network.dyn_peer[9928] 	lookupTimeSig:mean 	3.5142857142857
scalar Network.dyn_peer[9928] 	lookupStabilitySig:mean 	0.99547622529125
scalar Network.dyn_peer[9928] 	lookupHopsSig:mean 	34.285714285714
scalar Network.dyn_peer[9929] 	lookupTimeSig:mean 	3.7833333333333
scalar Network.dyn_peer[9929] 	lookupStabilitySig:mean 	0.99553613840059
scalar Network.dyn_peer[9929] 	lookupHopsSig:mean 	36.916666666667
scalar Network.dyn_peer[9930] 	lookupTimeSig:mean 	5.9833333333333
scalar Network.dyn_peer[9930] 	lookupStabilitySig:mean 	0.99266961989148
scalar Network.dyn_peer[9930] 	lookupHopsSig:mean 	59
scalar Network.dyn_peer[9931] 	lookupTimeSig:mean 	5.1125
scalar Network.dyn_peer[9931] 	lookupStabilitySig:mean 	0.99383999989368
scalar Network.dyn_peer[9931] 	lookupHopsSig:mean 	50.25
scalar Network.dyn_peer[9932] 	lookupTimeSig:mean 	4.5285714285714
scalar Network.dyn_peer[9932] 	lookupStabilitySig:mean 	0.99433848818964
scalar Network.dyn_peer[9932] 	lookupHopsSig:mean 	44.428571428571
scalar Network.dyn_peer[9933] 	lookupTimeSig:mean 	5.1
scalar Network.dyn_peer[9933] 	lookupStabilitySig:mean 	0.99386802267691
scalar Network.dyn_peer[9933] 	lookupHopsSig:mean 	50.125
scalar Network.dyn_peer[9934] 	lookupTimeSig:mean 	4.6625
scalar Network.dyn_peer[9934] 	lookupStabilitySig:mean 	0.99439704036922
scalar Network.dyn_peer[9934] 	lookupHopsSig:mean 	45.75
scalar Network.dyn_peer[9935] 	lookupTimeSig:mean 	6.4285714285714
scalar Network.dyn_peer[9935] 	lookupStabilitySig:mean 	0.99256389797665
scalar Network.dyn_peer[9935] 	lookupHopsSig:mean 	63.428571428571
scalar Network.dyn_peer[9936] 	lookupTimeSig:mean 	6.8625
scalar Network.dyn_peer[9936] 	lookupStabilitySig:mean 	0.99212960370642
scalar Network.dyn_peer[9936] 	lookupHopsSig:mean 	67.75
scalar Network.dyn_peer[9937] 	lookupTimeSig:mean 	4.2
scalar Network.dyn_peer[9937] 	lookupStabilitySig:mean 	0.9944992759265
scalar Network.dyn_peer[9937] 	lookupHopsSig:mean 	41.2
scalar Network.dyn_peer[9938] 	lookupTimeSig:mean 	4.1
scalar Network.dyn_peer[9938] 	lookupStabilitySig:mean 	0.99486257363709
scalar Network.dyn_peer[9938] 	lookupHopsSig:mean 	40.142857142857
scalar Network.dyn_peer[9939] 	lookupTimeSig:mean 	6.4833333333333
scalar Network.dyn_peer[9939] 	lookupStabilitySig:mean 	0.99224440970769
scalar Network.dyn_peer[9939] 	lookupHopsSig:mean 	64
scalar Network.dyn_peer[9940] 	lookupTimeSig:mean 	6.225
scalar Network.dyn_peer[9940] 	lookupStabilitySig:mean 	0.99285095413506
scalar Network.dyn_peer[9940] 	lookupHopsSig:mean 	61.375
scalar Network.dyn_peer[9941] 	lookupTimeSig:mean 	5.5916666666667
scalar Network.dyn_peer[9941] 	lookupStabilitySig:mean 	0.99371714727022
scalar Network.dyn_peer[9941] 	lookupHopsSig:mean 	55
scalar Network.dyn_peer[9942] 	lookupTimeSig:mean 	6.0125
scalar Network.dyn_peer[9942] 	lookupStabilitySig:mean 	0.99293217493687
scalar Network.dyn_peer[9942] 	lookupHopsSig:mean 	59.25
scalar Network.dyn_peer[9943] 	lookupTimeSig:mean 	4.575
scalar Network.dyn_peer[9943] 	lookupStabilitySig:mean 	0.99393780909304
scalar Network.dyn_peer[9943] 	lookupHopsSig:mean 	45
scalar Network.dyn_peer[9944] 	lookupTimeSig:mean 	4.1666666666667
scalar Network.dyn_peer[9944] 	lookupStabilitySig:mean 	0.9946570880323
scalar Network.dyn_peer[9944] 	lookupHopsSig:mean 	40.833333333333
scalar Network.dyn_peer[9945] 	lookupTimeSig:mean 	5.575
scalar Network.dyn_peer[9945] 	lookupStabilitySig:mean 	0.99276092887158
scalar Network.dyn_peer[9945] 	lookupHopsSig:mean 	55
scalar Network.dyn_peer[9946] 	lookupTimeSig:mean 	6.4714285714286
scalar Network.dyn_peer[9946] 	lookupStabilitySig:mean 	0.99241374577728
scalar Network.dyn_peer[9946] 	lookupHopsSig:mean 	63.857142857143
scalar Network.dyn_peer[9947] 	lookupTimeSig:mean 	5.6714285714286
scalar Network.dyn_peer[9947] 	lookupStabilitySig:mean 	0.99374909860282
scalar Network.dyn_peer[9947] 	lookupHopsSig:mean 	55.785714285714
scalar Network.dyn_peer[9948] 	lookupTimeSig:mean 	8.66
scalar Network.dyn_peer[9948] 	lookupStabilitySig:mean 	0.98982339706272
scalar Network.dyn_peer[9948] 	lookupHopsSig:mean 	85.8
scalar Network.dyn_peer[9949] 	lookupTimeSig:mean 	3.9142857142857
scalar Network.dyn_peer[9949] 	lookupStabilitySig:mean 	0.99501229114165
scalar Network.dyn_peer[9949] 	lookupHopsSig:mean 	38.285714285714
scalar Network.dyn_peer[9950] 	lookupTimeSig:mean 	6.9142857142857
scalar Network.dyn_peer[9950] 	lookupStabilitySig:mean 	0.99209990079648
scalar Network.dyn_peer[9950] 	lookupHopsSig:mean 	68.285714285714
scalar Network.dyn_peer[9951] 	lookupTimeSig:mean 	3.1714285714286
scalar Network.dyn_peer[9951] 	lookupStabilitySig:mean 	0.99587501121485
scalar Network.dyn_peer[9951] 	lookupHopsSig:mean 	30.857142857143
scalar Network.dyn_peer[9952] 	lookupTimeSig:mean 	4.6916666666667
scalar Network.dyn_peer[9952] 	lookupStabilitySig:mean 	0.99460840951845
scalar Network.dyn_peer[9952] 	lookupHopsSig:mean 	46
scalar Network.dyn_peer[9953] 	lookupTimeSig:mean 	4.5285714285714
scalar Network.dyn_peer[9953] 	lookupStabilitySig:mean 	0.99434754980861
scalar Network.dyn_peer[9953] 	lookupHopsSig:mean 	44.428571428571
scalar Network.dyn_peer[9954] 	lookupTimeSig:mean 	5.5833333333333
scalar Network.dyn_peer[9954] 	lookupStabilitySig:mean 	0.99380154855802
scalar Network.dyn_peer[9954] 	lookupHopsSig:mean 	54.916666666667
scalar Network.dyn_peer[9955] 	lookupTimeSig:mean 	4.75
scalar Network.dyn_peer[9955] 	lookupStabilitySig:mean 	0.9948329917
scalar Network.dyn_peer[9955] 	lookupHopsSig:mean 	46.555555555556
scalar Network.dyn_peer[9956] 	lookupTimeSig:mean 	5.2888888888889
scalar Network.dyn_peer[9956] 	lookupStabilitySig:mean 	0.99381845568617
scalar Network.dyn_peer[9956] 	lookupHopsSig:mean 	52
scalar Network.dyn_peer[9957] 	lookupTimeSig:mean 	5.24
scalar Network.dyn_peer[9957] 	lookupStabilitySig:mean 	0.99329953864217
scalar Network.dyn_peer[9957] 	lookupHopsSig:mean 	51.6
scalar Network.dyn_peer[9958] 	lookupTimeSig:mean 	7.94
scalar Network.dyn_peer[9958] 	lookupStabilitySig:mean 	0.99126044097357
scalar Network.dyn_peer[9958] 	lookupHopsSig:mean 	78.5
scalar Network.dyn_peer[9959] 	lookupTimeSig:mean 	6.9166666666667
scalar Network.dyn_peer[9959] 	lookupStabilitySig:mean 	0.99248775899954
scalar Network.dyn_peer[9959] 	lookupHopsSig:mean 	68.25
scalar Network.dyn_peer[9960] 	lookupTimeSig:mean 	4.8222222222222
scalar Network.dyn_peer[9960] 	lookupStabilitySig:mean 	0.99429124003897
scalar Network.dyn_peer[9960] 	lookupHopsSig:mean 	47.333333333333
scalar Network.dyn_peer[9961] 	lookupTimeSig:mean 	4.38
scalar Network.dyn_peer[9961] 	lookupStabilitySig:mean 	0.99486887296662
scalar Network.dyn_peer[9961] 	lookupHopsSig:mean 	42.9
scalar Network.dyn_peer[9962] 	lookupTimeSig:mean 	6.2285714285714
scalar Network.dyn_peer[9962] 	lookupStabilitySig:mean 	0.99321567097962
scalar Network.dyn_peer[9962] 	lookupHopsSig:mean 	61.357142857143
scalar Network.dyn_peer[9963] 	lookupTimeSig:mean 	4.5375
scalar Network.dyn_peer[9963] 	lookupStabilitySig:mean 	0.99447551059711
scalar Network.dyn_peer[9963] 	lookupHopsSig:mean 	44.5
scalar Network.dyn_peer[9964] 	lookupTimeSig:mean 	5.2833333333333
scalar Network.dyn_peer[9964] 	lookupStabilitySig:mean 	0.99362594920482
scalar Network.dyn_peer[9964] 	lookupHopsSig:mean 	52
scalar Network.dyn_peer[9965] 	lookupTimeSig:mean 	6.89
scalar Network.dyn_peer[9965] 	lookupStabilitySig:mean 	0.99235212141648
scalar Network.dyn_peer[9965] 	lookupHopsSig:mean 	68
scalar Network.dyn_peer[9966] 	lookupTimeSig:mean 	3.6428571428571
scalar Network.dyn_peer[9966] 	lookupStabilitySig:mean 	0.99534229480196
scalar Network.dyn_peer[9966] 	lookupHopsSig:mean 	35.571428571429
scalar Network.dyn_peer[9967] 	lookupTimeSig:mean 	5.325
scalar Network.dyn_peer[9967] 	lookupStabilitySig:mean 	0.99307717572083
scalar Network.dyn_peer[9967] 	lookupHopsSig:mean 	52.5
scalar Network.dyn_peer[9968] 	lookupTimeSig:mean 	5.3727272727273
scalar Network.dyn_peer[9968] 	lookupStabilitySig:mean 	0.99389374501665
scalar Network.dyn_peer[9968] 	lookupHopsSig:mean 	52.818181818182
scalar Network.dyn_peer[9969] 	lookupTimeSig:mean 	5.3
scalar Network.dyn_peer[9969] 	lookupStabilitySig:mean 	0.99327004016377
scalar Network.dyn_peer[9969] 	lookupHopsSig:mean 	52.2
scalar Network.dyn_peer[9970] 	lookupTimeSig:mean 	3.8142857142857
scalar Network.dyn_peer[9970] 	lookupStabilitySig:mean 	0.99515562336559
scalar Network.dyn_peer[9970] 	lookupHopsSig:mean 	37.285714285714
scalar Network.dyn_peer[9971] 	lookupTimeSig:mean 	5.15
scalar Network.dyn_peer[9971] 	lookupStabilitySig:mean 	0.99282798613422
scalar Network.dyn_peer[9971] 	lookupHopsSig:mean 	51
scalar Network.dyn_peer[9972] 	lookupTimeSig:mean 	5.00625
scalar Network.dyn_peer[9972] 	lookupStabilitySig:mean 	0.9945194317188
scalar Network.dyn_peer[9972] 	lookupHopsSig:mean 	49.125
scalar Network.dyn_peer[9973] 	lookupTimeSig:mean 	3.0153846153846
scalar Network.dyn_peer[9973] 	lookupStabilitySig:mean 	0.99638706737404
scalar Network.dyn_peer[9973] 	lookupHopsSig:mean 	29.230769230769
scalar Network.dyn_peer[9974] 	lookupTimeSig:mean 	5.6875
scalar Network.dyn_peer[9974] 	lookupStabilitySig:mean 	0.99336571083404
scalar Network.dyn_peer[9974] 	lookupHopsSig:mean 	56
scalar Network.dyn_peer[9975] 	lookupTimeSig:mean 	6.0142857142857
scalar Network.dyn_peer[9975] 	lookupStabilitySig:mean 	0.99281275305631
scalar Network.dyn_peer[9975] 	lookupHopsSig:mean 	59.285714285714
scalar Network.dyn_peer[9976] 	lookupTimeSig:mean 	5.7666666666667
scalar Network.dyn_peer[9976] 	lookupStabilitySig:mean 	0.99230477617433
scalar Network.dyn_peer[9976] 	lookupHopsSig:mean 	57
scalar Network.dyn_peer[9977] 	lookupTimeSig:mean 	5.9375
scalar Network.dyn_peer[9977] 	lookupStabilitySig:mean 	0.99321627592144
scalar Network.dyn_peer[9977] 	lookupHopsSig:mean 	58.5
scalar Network.dyn_peer[9978] 	lookupTimeSig:mean 	4.55
scalar Network.dyn_peer[9978] 	lookupStabilitySig:mean 	0.99468968984438
scalar Network.dyn_peer[9978] 	lookupHopsSig:mean 	44.6
scalar Network.dyn_peer[9979] 	lookupTimeSig:mean 	3.9133333333333
scalar Network.dyn_peer[9979] 	lookupStabilitySig:mean 	0.99555207600642
scalar Network.dyn_peer[9979] 	lookupHopsSig:mean 	38.2
scalar Network.dyn_peer[9980] 	lookupTimeSig:mean 	7.175
scalar Network.dyn_peer[9980] 	lookupStabilitySig:mean 	0.9910365746473
scalar Network.dyn_peer[9980] 	lookupHopsSig:mean 	71
scalar Network.dyn_peer[9981] 	lookupTimeSig:mean 	6.2625
scalar Network.dyn_peer[9981] 	lookupStabilitySig:mean 	0.99277103846543
scalar Network.dyn_peer[9981] 	lookupHopsSig:mean 	61.75
scalar Network.dyn_peer[9982] 	lookupTimeSig:mean 	5.0285714285714
scalar Network.dyn_peer[9982] 	lookupStabilitySig:mean 	0.99384376862352
scalar Network.dyn_peer[9982] 	lookupHopsSig:mean 	49.428571428571
scalar Network.dyn_peer[9983] 	lookupTimeSig:mean 	6.7857142857143
scalar Network.dyn_peer[9983] 	lookupStabilitySig:mean 	0.99276461403601
scalar Network.dyn_peer[9983] 	lookupHopsSig:mean 	66.928571428571
scalar Network.dyn_peer[9984] 	lookupTimeSig:mean 	4.5875
scalar Network.dyn_peer[9984] 	lookupStabilitySig:mean 	0.99446003923367
scalar Network.dyn_peer[9984] 	lookupHopsSig:mean 	45
scalar Network.dyn_peer[9985] 	lookupTimeSig:mean 	6.25
scalar Network.dyn_peer[9985] 	lookupStabilitySig:mean 	0.99205299385358
scalar Network.dyn_peer[9985] 	lookupHopsSig:mean 	61.75
scalar Network.dyn_peer[9986] 	lookupTimeSig:mean 	6.5
scalar Network.dyn_peer[9986] 	lookupStabilitySig:mean 	0.99234915780835
scalar Network.dyn_peer[9986] 	lookupHopsSig:mean 	64.166666666667
scalar Network.dyn_peer[9987] 	lookupTimeSig:mean 	4.5928571428571
scalar Network.dyn_peer[9987] 	lookupStabilitySig:mean 	0.9948511995265
scalar Network.dyn_peer[9987] 	lookupHopsSig:mean 	45
scalar Network.dyn_peer[9988] 	lookupTimeSig:mean 	3.4083333333333
scalar Network.dyn_peer[9988] 	lookupStabilitySig:mean 	0.99593789424398
scalar Network.dyn_peer[9988] 	lookupHopsSig:mean 	33.166666666667
scalar Network.dyn_peer[9989] 	lookupTimeSig:mean 	4.8
scalar Network.dyn_peer[9989] 	lookupStabilitySig:mean 	0.99386721374467
scalar Network.dyn_peer[9989] 	lookupHopsSig:mean 	47.2
scalar Network.dyn_peer[9990] 	lookupTimeSig:mean 	6.4125
scalar Network.dyn_peer[9990] 	lookupStabilitySig:mean 	0.992602436163
scalar Network.dyn_peer[9990] 	lookupHopsSig:mean 	63.25
scalar Network.dyn_peer[9991] 	lookupTimeSig:mean 	5.3416666666667
scalar Network.dyn_peer[9991] 	lookupStabilitySig:mean 	0.99398574382455
scalar Network.dyn_peer[9991] 	lookupHopsSig:mean 	52.5
scalar Network.dyn_peer[9992] 	lookupTimeSig:mean 	7.6833333333333
scalar Network.dyn_peer[9992] 	lookupStabilitySig:mean 	0.99105597974267
scalar Network.dyn_peer[9992] 	lookupHopsSig:mean 	76
scalar Network.dyn_peer[9993] 	lookupTimeSig:mean 	4.1285714285714
scalar Network.dyn_peer[9993] 	lookupStabilitySig:mean 	0.99481148826557
scalar Network.dyn_peer[9993] 	lookupHopsSig:mean 	40.428571428571
scalar Network.dyn_peer[9994] 	lookupTimeSig:mean 	5.2333333333333
scalar Network.dyn_peer[9994] 	lookupStabilitySig:mean 	0.99297440331429
scalar Network.dyn_peer[9994] 	lookupHopsSig:mean 	51.666666666667
scalar Network.dyn_peer[9995] 	lookupTimeSig:mean 	4.4272727272727
scalar Network.dyn_peer[9995] 	lookupStabilitySig:mean 	0.99485093886985
scalar Network.dyn_peer[9995] 	lookupHopsSig:mean 	43.363636363636
scalar Network.dyn_peer[9996] 	lookupTimeSig:mean 	4.1
scalar Network.dyn_peer[9996] 	lookupStabilitySig:mean 	0.99524409527658
scalar Network.dyn_peer[9996] 	lookupHopsSig:mean 	40.083333333333
scalar Network.dyn_peer[9997] 	lookupTimeSig:mean 	5.0571428571429
scalar Network.dyn_peer[9997] 	lookupStabilitySig:mean 	0.99382714850695
scalar Network.dyn_peer[9997] 	lookupHopsSig:mean 	49.714285714286
scalar Network.dyn_peer[9998] 	lookupTimeSig:mean 	3.9142857142857
scalar Network.dyn_peer[9998] 	lookupStabilitySig:mean 	0.99504789467236
scalar Network.dyn_peer[9998] 	lookupHopsSig:mean 	38.285714285714
scalar Network.dyn_peer[9999] 	lookupTimeSig:mean 	4.1555555555556
scalar Network.dyn_peer[9999] 	lookupStabilitySig:mean 	0.9949522588609
scalar Network.dyn_peer[9999] 	lookupHopsSig:mean 	40.666666666667
scalar Network.churner 	inGoingSizeSig:mean 	2114.9160083992
