version 2
run Stability2-107-20130528-11:50:26-24168
attr configname Stability2
attr datetime 20130528-11:50:26
attr experiment Stability2
attr inifile omnetpp.ini
attr iterationvars $0=1000
attr iterationvars2 "$0=1000, $repetition=7"
attr measurement $0=1000
attr network Network
attr processid 24168
attr repetition 7
attr replication #7
attr resultdir results
attr runnumber 107
attr seedset 107

scalar Network.dyn_peer[0] 	lookupTimeSig:mean 	2.9294117647059
scalar Network.dyn_peer[0] 	lookupStabilitySig:mean 	0.90113341353615
scalar Network.dyn_peer[0] 	lookupHopsSig:mean 	28.352941176471
scalar Network.dyn_peer[1] 	lookupTimeSig:mean 	2.56
scalar Network.dyn_peer[1] 	lookupStabilitySig:mean 	0.83165617461006
scalar Network.dyn_peer[1] 	lookupHopsSig:mean 	24.666666666667
scalar Network.dyn_peer[2] 	lookupTimeSig:mean 	3.525
scalar Network.dyn_peer[2] 	lookupStabilitySig:mean 	0.87657754615648
scalar Network.dyn_peer[2] 	lookupHopsSig:mean 	34.3
scalar Network.dyn_peer[3] 	lookupTimeSig:mean 	3.4666666666667
scalar Network.dyn_peer[3] 	lookupStabilitySig:mean 	0.92456155978143
scalar Network.dyn_peer[3] 	lookupHopsSig:mean 	33.7
scalar Network.dyn_peer[4] 	lookupTimeSig:mean 	3.57
scalar Network.dyn_peer[4] 	lookupStabilitySig:mean 	0.86609440415632
scalar Network.dyn_peer[4] 	lookupHopsSig:mean 	34.75
scalar Network.dyn_peer[5] 	lookupTimeSig:mean 	3.5625
scalar Network.dyn_peer[5] 	lookupStabilitySig:mean 	0.85641993832542
scalar Network.dyn_peer[5] 	lookupHopsSig:mean 	34.6875
scalar Network.dyn_peer[6] 	lookupTimeSig:mean 	2.6529411764706
scalar Network.dyn_peer[6] 	lookupStabilitySig:mean 	0.84708791442887
scalar Network.dyn_peer[6] 	lookupHopsSig:mean 	25.588235294118
scalar Network.dyn_peer[7] 	lookupTimeSig:mean 	2.988
scalar Network.dyn_peer[7] 	lookupStabilitySig:mean 	0.90868707295507
scalar Network.dyn_peer[7] 	lookupHopsSig:mean 	28.92
scalar Network.dyn_peer[8] 	lookupTimeSig:mean 	2.7166666666667
scalar Network.dyn_peer[8] 	lookupStabilitySig:mean 	0.88218910530365
scalar Network.dyn_peer[8] 	lookupHopsSig:mean 	26.222222222222
scalar Network.dyn_peer[9] 	lookupTimeSig:mean 	2.368
scalar Network.dyn_peer[9] 	lookupStabilitySig:mean 	0.90588880572934
scalar Network.dyn_peer[9] 	lookupHopsSig:mean 	22.72
scalar Network.dyn_peer[10] 	lookupTimeSig:mean 	3.3888888888889
scalar Network.dyn_peer[10] 	lookupStabilitySig:mean 	0.8773911163185
scalar Network.dyn_peer[10] 	lookupHopsSig:mean 	32.944444444444
scalar Network.dyn_peer[11] 	lookupTimeSig:mean 	2.5473684210526
scalar Network.dyn_peer[11] 	lookupStabilitySig:mean 	0.89865038014556
scalar Network.dyn_peer[11] 	lookupHopsSig:mean 	24.526315789474
scalar Network.dyn_peer[12] 	lookupTimeSig:mean 	2.6692307692308
scalar Network.dyn_peer[12] 	lookupStabilitySig:mean 	0.85317163903696
scalar Network.dyn_peer[12] 	lookupHopsSig:mean 	25.769230769231
scalar Network.dyn_peer[13] 	lookupTimeSig:mean 	3.7947368421053
scalar Network.dyn_peer[13] 	lookupStabilitySig:mean 	0.88823543942386
scalar Network.dyn_peer[13] 	lookupHopsSig:mean 	37
scalar Network.dyn_peer[14] 	lookupTimeSig:mean 	2.3421052631579
scalar Network.dyn_peer[14] 	lookupStabilitySig:mean 	0.89690237960435
scalar Network.dyn_peer[14] 	lookupHopsSig:mean 	22.473684210526
scalar Network.dyn_peer[15] 	lookupTimeSig:mean 	3.7411764705882
scalar Network.dyn_peer[15] 	lookupStabilitySig:mean 	0.86360432212378
scalar Network.dyn_peer[15] 	lookupHopsSig:mean 	36.470588235294
scalar Network.dyn_peer[16] 	lookupTimeSig:mean 	3.5823529411765
scalar Network.dyn_peer[16] 	lookupStabilitySig:mean 	0.89379529778243
scalar Network.dyn_peer[16] 	lookupHopsSig:mean 	34.882352941176
scalar Network.dyn_peer[17] 	lookupTimeSig:mean 	3.5714285714286
scalar Network.dyn_peer[17] 	lookupStabilitySig:mean 	0.87381135792072
scalar Network.dyn_peer[17] 	lookupHopsSig:mean 	34.785714285714
scalar Network.dyn_peer[18] 	lookupTimeSig:mean 	3.3826086956522
scalar Network.dyn_peer[18] 	lookupStabilitySig:mean 	0.91018000023399
scalar Network.dyn_peer[18] 	lookupHopsSig:mean 	32.869565217391
scalar Network.dyn_peer[19] 	lookupTimeSig:mean 	2.875
scalar Network.dyn_peer[19] 	lookupStabilitySig:mean 	0.86985789364553
scalar Network.dyn_peer[19] 	lookupHopsSig:mean 	27.8125
scalar Network.dyn_peer[20] 	lookupTimeSig:mean 	2.8928571428571
scalar Network.dyn_peer[20] 	lookupStabilitySig:mean 	0.8533669765706
scalar Network.dyn_peer[20] 	lookupHopsSig:mean 	28
scalar Network.dyn_peer[21] 	lookupTimeSig:mean 	2.5625
scalar Network.dyn_peer[21] 	lookupStabilitySig:mean 	0.86944840336218
scalar Network.dyn_peer[21] 	lookupHopsSig:mean 	24.6875
scalar Network.dyn_peer[22] 	lookupTimeSig:mean 	4.06
scalar Network.dyn_peer[22] 	lookupStabilitySig:mean 	0.91666284301318
scalar Network.dyn_peer[22] 	lookupHopsSig:mean 	39.65
scalar Network.dyn_peer[23] 	lookupTimeSig:mean 	3.5045454545455
scalar Network.dyn_peer[23] 	lookupStabilitySig:mean 	0.91816427952356
scalar Network.dyn_peer[23] 	lookupHopsSig:mean 	34.090909090909
scalar Network.dyn_peer[24] 	lookupTimeSig:mean 	3.96
scalar Network.dyn_peer[24] 	lookupStabilitySig:mean 	0.87928096414544
scalar Network.dyn_peer[24] 	lookupHopsSig:mean 	38.65
scalar Network.dyn_peer[25] 	lookupTimeSig:mean 	2.7
scalar Network.dyn_peer[25] 	lookupStabilitySig:mean 	0.85296952263029
scalar Network.dyn_peer[25] 	lookupHopsSig:mean 	26.090909090909
scalar Network.dyn_peer[26] 	lookupTimeSig:mean 	4.2863636363636
scalar Network.dyn_peer[26] 	lookupStabilitySig:mean 	0.90756279636513
scalar Network.dyn_peer[26] 	lookupHopsSig:mean 	41.909090909091
scalar Network.dyn_peer[27] 	lookupTimeSig:mean 	3.4791666666667
scalar Network.dyn_peer[27] 	lookupStabilitySig:mean 	0.92339165192485
scalar Network.dyn_peer[27] 	lookupHopsSig:mean 	33.833333333333
scalar Network.dyn_peer[28] 	lookupTimeSig:mean 	2.6954545454545
scalar Network.dyn_peer[28] 	lookupStabilitySig:mean 	0.89546147272499
scalar Network.dyn_peer[28] 	lookupHopsSig:mean 	26
scalar Network.dyn_peer[29] 	lookupTimeSig:mean 	3.5588235294118
scalar Network.dyn_peer[29] 	lookupStabilitySig:mean 	0.9065874191275
scalar Network.dyn_peer[29] 	lookupHopsSig:mean 	34.647058823529
scalar Network.dyn_peer[30] 	lookupTimeSig:mean 	2.6857142857143
scalar Network.dyn_peer[30] 	lookupStabilitySig:mean 	0.86733357900188
scalar Network.dyn_peer[30] 	lookupHopsSig:mean 	25.928571428571
scalar Network.dyn_peer[31] 	lookupTimeSig:mean 	3.4931034482759
scalar Network.dyn_peer[31] 	lookupStabilitySig:mean 	0.92465652929266
scalar Network.dyn_peer[31] 	lookupHopsSig:mean 	33.965517241379
scalar Network.dyn_peer[32] 	lookupTimeSig:mean 	3.015625
scalar Network.dyn_peer[32] 	lookupStabilitySig:mean 	0.93208610365036
scalar Network.dyn_peer[32] 	lookupHopsSig:mean 	29.1875
scalar Network.dyn_peer[33] 	lookupTimeSig:mean 	3.9411764705882
scalar Network.dyn_peer[33] 	lookupStabilitySig:mean 	0.90891869604478
scalar Network.dyn_peer[33] 	lookupHopsSig:mean 	38.470588235294
scalar Network.dyn_peer[34] 	lookupTimeSig:mean 	2.544
scalar Network.dyn_peer[34] 	lookupStabilitySig:mean 	0.91018320024945
scalar Network.dyn_peer[34] 	lookupHopsSig:mean 	24.48
scalar Network.dyn_peer[35] 	lookupTimeSig:mean 	3.4588235294118
scalar Network.dyn_peer[35] 	lookupStabilitySig:mean 	0.91550815312247
scalar Network.dyn_peer[35] 	lookupHopsSig:mean 	33.647058823529
scalar Network.dyn_peer[36] 	lookupTimeSig:mean 	3.55
scalar Network.dyn_peer[36] 	lookupStabilitySig:mean 	0.92120157234604
scalar Network.dyn_peer[36] 	lookupHopsSig:mean 	34.541666666667
scalar Network.dyn_peer[37] 	lookupTimeSig:mean 	2.6133333333333
scalar Network.dyn_peer[37] 	lookupStabilitySig:mean 	0.87814906438192
scalar Network.dyn_peer[37] 	lookupHopsSig:mean 	25.2
scalar Network.dyn_peer[38] 	lookupTimeSig:mean 	2.0583333333333
scalar Network.dyn_peer[38] 	lookupStabilitySig:mean 	0.95040517198989
scalar Network.dyn_peer[38] 	lookupHopsSig:mean 	19.625
scalar Network.dyn_peer[39] 	lookupTimeSig:mean 	3.14375
scalar Network.dyn_peer[39] 	lookupStabilitySig:mean 	0.93946733762641
scalar Network.dyn_peer[39] 	lookupHopsSig:mean 	30.46875
scalar Network.dyn_peer[40] 	lookupTimeSig:mean 	3.3375
scalar Network.dyn_peer[40] 	lookupStabilitySig:mean 	0.91736619290896
scalar Network.dyn_peer[40] 	lookupHopsSig:mean 	32.416666666667
scalar Network.dyn_peer[41] 	lookupTimeSig:mean 	3.4538461538462
scalar Network.dyn_peer[41] 	lookupStabilitySig:mean 	0.86242663401824
scalar Network.dyn_peer[41] 	lookupHopsSig:mean 	33.615384615385
scalar Network.dyn_peer[42] 	lookupTimeSig:mean 	3.35
scalar Network.dyn_peer[42] 	lookupStabilitySig:mean 	0.91815106202072
scalar Network.dyn_peer[42] 	lookupHopsSig:mean 	32.541666666667
scalar Network.dyn_peer[43] 	lookupTimeSig:mean 	2.792
scalar Network.dyn_peer[43] 	lookupStabilitySig:mean 	0.93501602035016
scalar Network.dyn_peer[43] 	lookupHopsSig:mean 	26.96
scalar Network.dyn_peer[44] 	lookupTimeSig:mean 	2.9375
scalar Network.dyn_peer[44] 	lookupStabilitySig:mean 	0.92121837358961
scalar Network.dyn_peer[44] 	lookupHopsSig:mean 	28.416666666667
scalar Network.dyn_peer[45] 	lookupTimeSig:mean 	3.625
scalar Network.dyn_peer[45] 	lookupStabilitySig:mean 	0.9211272780085
scalar Network.dyn_peer[45] 	lookupHopsSig:mean 	35.291666666667
scalar Network.dyn_peer[46] 	lookupTimeSig:mean 	3.551724137931
scalar Network.dyn_peer[46] 	lookupStabilitySig:mean 	0.92354575132325
scalar Network.dyn_peer[46] 	lookupHopsSig:mean 	34.551724137931
scalar Network.dyn_peer[47] 	lookupTimeSig:mean 	3.2473684210526
scalar Network.dyn_peer[47] 	lookupStabilitySig:mean 	0.90296736729674
scalar Network.dyn_peer[47] 	lookupHopsSig:mean 	31.526315789474
scalar Network.dyn_peer[48] 	lookupTimeSig:mean 	3.9428571428571
scalar Network.dyn_peer[48] 	lookupStabilitySig:mean 	0.92865340635624
scalar Network.dyn_peer[48] 	lookupHopsSig:mean 	38.47619047619
scalar Network.dyn_peer[49] 	lookupTimeSig:mean 	1.7666666666667
scalar Network.dyn_peer[49] 	lookupStabilitySig:mean 	0.87292099636397
scalar Network.dyn_peer[49] 	lookupHopsSig:mean 	16.75
scalar Network.dyn_peer[50] 	lookupTimeSig:mean 	2.9344827586207
scalar Network.dyn_peer[50] 	lookupStabilitySig:mean 	0.95220598080878
scalar Network.dyn_peer[50] 	lookupHopsSig:mean 	28.379310344828
scalar Network.dyn_peer[51] 	lookupTimeSig:mean 	3.3875
scalar Network.dyn_peer[51] 	lookupStabilitySig:mean 	0.89212426620361
scalar Network.dyn_peer[51] 	lookupHopsSig:mean 	32.9375
scalar Network.dyn_peer[52] 	lookupTimeSig:mean 	2.7310344827586
scalar Network.dyn_peer[52] 	lookupStabilitySig:mean 	0.94075642875396
scalar Network.dyn_peer[52] 	lookupHopsSig:mean 	26.344827586207
scalar Network.dyn_peer[53] 	lookupTimeSig:mean 	3.5076923076923
scalar Network.dyn_peer[53] 	lookupStabilitySig:mean 	0.92606460995739
scalar Network.dyn_peer[53] 	lookupHopsSig:mean 	34.115384615385
scalar Network.dyn_peer[54] 	lookupTimeSig:mean 	3.0636363636364
scalar Network.dyn_peer[54] 	lookupStabilitySig:mean 	0.92507693624463
scalar Network.dyn_peer[54] 	lookupHopsSig:mean 	29.681818181818
scalar Network.dyn_peer[55] 	lookupTimeSig:mean 	3.73
scalar Network.dyn_peer[55] 	lookupStabilitySig:mean 	0.92275730227702
scalar Network.dyn_peer[55] 	lookupHopsSig:mean 	36.35
scalar Network.dyn_peer[56] 	lookupTimeSig:mean 	3.32
scalar Network.dyn_peer[56] 	lookupStabilitySig:mean 	0.93766310792416
scalar Network.dyn_peer[56] 	lookupHopsSig:mean 	32.25
scalar Network.dyn_peer[57] 	lookupTimeSig:mean 	2.7235294117647
scalar Network.dyn_peer[57] 	lookupStabilitySig:mean 	0.90085129231653
scalar Network.dyn_peer[57] 	lookupHopsSig:mean 	26.294117647059
scalar Network.dyn_peer[58] 	lookupTimeSig:mean 	3.13125
scalar Network.dyn_peer[58] 	lookupStabilitySig:mean 	0.90016951324651
scalar Network.dyn_peer[58] 	lookupHopsSig:mean 	30.375
scalar Network.dyn_peer[59] 	lookupTimeSig:mean 	2.895652173913
scalar Network.dyn_peer[59] 	lookupStabilitySig:mean 	0.93040136862091
scalar Network.dyn_peer[59] 	lookupHopsSig:mean 	28
scalar Network.dyn_peer[60] 	lookupTimeSig:mean 	2.8166666666667
scalar Network.dyn_peer[60] 	lookupStabilitySig:mean 	0.92735798874249
scalar Network.dyn_peer[60] 	lookupHopsSig:mean 	27.208333333333
scalar Network.dyn_peer[61] 	lookupTimeSig:mean 	2.5608695652174
scalar Network.dyn_peer[61] 	lookupStabilitySig:mean 	0.91936168884454
scalar Network.dyn_peer[61] 	lookupHopsSig:mean 	24.652173913043
scalar Network.dyn_peer[62] 	lookupTimeSig:mean 	2.2666666666667
scalar Network.dyn_peer[62] 	lookupStabilitySig:mean 	0.89658141539743
scalar Network.dyn_peer[62] 	lookupHopsSig:mean 	21.777777777778
scalar Network.dyn_peer[63] 	lookupTimeSig:mean 	2.9642857142857
scalar Network.dyn_peer[63] 	lookupStabilitySig:mean 	0.94216321335573
scalar Network.dyn_peer[63] 	lookupHopsSig:mean 	28.714285714286
scalar Network.dyn_peer[64] 	lookupTimeSig:mean 	2.4535714285714
scalar Network.dyn_peer[64] 	lookupStabilitySig:mean 	0.94222916375812
scalar Network.dyn_peer[64] 	lookupHopsSig:mean 	23.571428571429
scalar Network.dyn_peer[65] 	lookupTimeSig:mean 	3.1636363636364
scalar Network.dyn_peer[65] 	lookupStabilitySig:mean 	0.96629725062556
scalar Network.dyn_peer[65] 	lookupHopsSig:mean 	30.666666666667
scalar Network.dyn_peer[66] 	lookupTimeSig:mean 	3.5333333333333
scalar Network.dyn_peer[66] 	lookupStabilitySig:mean 	0.93146201199852
scalar Network.dyn_peer[66] 	lookupHopsSig:mean 	34.380952380952
scalar Network.dyn_peer[67] 	lookupTimeSig:mean 	2.29375
scalar Network.dyn_peer[67] 	lookupStabilitySig:mean 	0.92805205861077
scalar Network.dyn_peer[67] 	lookupHopsSig:mean 	22
scalar Network.dyn_peer[68] 	lookupTimeSig:mean 	4.1222222222222
scalar Network.dyn_peer[68] 	lookupStabilitySig:mean 	0.9407575564045
scalar Network.dyn_peer[68] 	lookupHopsSig:mean 	40.277777777778
scalar Network.dyn_peer[69] 	lookupTimeSig:mean 	2.6368421052632
scalar Network.dyn_peer[69] 	lookupStabilitySig:mean 	0.91931820668182
scalar Network.dyn_peer[69] 	lookupHopsSig:mean 	25.421052631579
scalar Network.dyn_peer[70] 	lookupTimeSig:mean 	3.025
scalar Network.dyn_peer[70] 	lookupStabilitySig:mean 	0.94411189413707
scalar Network.dyn_peer[70] 	lookupHopsSig:mean 	29.291666666667
scalar Network.dyn_peer[71] 	lookupTimeSig:mean 	3.905
scalar Network.dyn_peer[71] 	lookupStabilitySig:mean 	0.92600047443993
scalar Network.dyn_peer[71] 	lookupHopsSig:mean 	38.1
scalar Network.dyn_peer[72] 	lookupTimeSig:mean 	3.3636363636364
scalar Network.dyn_peer[72] 	lookupStabilitySig:mean 	0.93395023063799
scalar Network.dyn_peer[72] 	lookupHopsSig:mean 	32.681818181818
scalar Network.dyn_peer[73] 	lookupTimeSig:mean 	4.015
scalar Network.dyn_peer[73] 	lookupStabilitySig:mean 	0.93513109778287
scalar Network.dyn_peer[73] 	lookupHopsSig:mean 	39.2
scalar Network.dyn_peer[74] 	lookupTimeSig:mean 	4.5230769230769
scalar Network.dyn_peer[74] 	lookupStabilitySig:mean 	0.94239141745493
scalar Network.dyn_peer[74] 	lookupHopsSig:mean 	44.269230769231
scalar Network.dyn_peer[75] 	lookupTimeSig:mean 	3.1809523809524
scalar Network.dyn_peer[75] 	lookupStabilitySig:mean 	0.94925222144507
scalar Network.dyn_peer[75] 	lookupHopsSig:mean 	30.857142857143
scalar Network.dyn_peer[76] 	lookupTimeSig:mean 	2.6055555555556
scalar Network.dyn_peer[76] 	lookupStabilitySig:mean 	0.92402429502626
scalar Network.dyn_peer[76] 	lookupHopsSig:mean 	25.111111111111
scalar Network.dyn_peer[77] 	lookupTimeSig:mean 	3.564
scalar Network.dyn_peer[77] 	lookupStabilitySig:mean 	0.9500018984545
scalar Network.dyn_peer[77] 	lookupHopsSig:mean 	34.68
scalar Network.dyn_peer[78] 	lookupTimeSig:mean 	2.6368421052632
scalar Network.dyn_peer[78] 	lookupStabilitySig:mean 	0.93823558365387
scalar Network.dyn_peer[78] 	lookupHopsSig:mean 	25.421052631579
scalar Network.dyn_peer[79] 	lookupTimeSig:mean 	2.4333333333333
scalar Network.dyn_peer[79] 	lookupStabilitySig:mean 	0.93562839954116
scalar Network.dyn_peer[79] 	lookupHopsSig:mean 	23.380952380952
scalar Network.dyn_peer[80] 	lookupTimeSig:mean 	3.4535714285714
scalar Network.dyn_peer[80] 	lookupStabilitySig:mean 	0.95900723424191
scalar Network.dyn_peer[80] 	lookupHopsSig:mean 	33.571428571429
scalar Network.dyn_peer[81] 	lookupTimeSig:mean 	3.944
scalar Network.dyn_peer[81] 	lookupStabilitySig:mean 	0.94683594354428
scalar Network.dyn_peer[81] 	lookupHopsSig:mean 	38.48
scalar Network.dyn_peer[82] 	lookupTimeSig:mean 	2.84
scalar Network.dyn_peer[82] 	lookupStabilitySig:mean 	0.94857248534914
scalar Network.dyn_peer[82] 	lookupHopsSig:mean 	27.44
scalar Network.dyn_peer[83] 	lookupTimeSig:mean 	3.4444444444444
scalar Network.dyn_peer[83] 	lookupStabilitySig:mean 	0.89854348719948
scalar Network.dyn_peer[83] 	lookupHopsSig:mean 	33.555555555556
scalar Network.dyn_peer[84] 	lookupTimeSig:mean 	3.7222222222222
scalar Network.dyn_peer[84] 	lookupStabilitySig:mean 	0.92097831618351
scalar Network.dyn_peer[84] 	lookupHopsSig:mean 	36.277777777778
scalar Network.dyn_peer[85] 	lookupTimeSig:mean 	2.7
scalar Network.dyn_peer[85] 	lookupStabilitySig:mean 	0.9600030778304
scalar Network.dyn_peer[85] 	lookupHopsSig:mean 	26.045454545455
scalar Network.dyn_peer[86] 	lookupTimeSig:mean 	3.7764705882353
scalar Network.dyn_peer[86] 	lookupStabilitySig:mean 	0.92138986593551
scalar Network.dyn_peer[86] 	lookupHopsSig:mean 	36.823529411765
scalar Network.dyn_peer[87] 	lookupTimeSig:mean 	3.125
scalar Network.dyn_peer[87] 	lookupStabilitySig:mean 	0.93376157165039
scalar Network.dyn_peer[87] 	lookupHopsSig:mean 	30.3125
scalar Network.dyn_peer[88] 	lookupTimeSig:mean 	3.3
scalar Network.dyn_peer[88] 	lookupStabilitySig:mean 	0.93722664953252
scalar Network.dyn_peer[88] 	lookupHopsSig:mean 	32.045454545455
scalar Network.dyn_peer[89] 	lookupTimeSig:mean 	2.5958333333333
scalar Network.dyn_peer[89] 	lookupStabilitySig:mean 	0.95075642554851
scalar Network.dyn_peer[89] 	lookupHopsSig:mean 	25
scalar Network.dyn_peer[90] 	lookupTimeSig:mean 	4.32
scalar Network.dyn_peer[90] 	lookupStabilitySig:mean 	0.94597535325214
scalar Network.dyn_peer[90] 	lookupHopsSig:mean 	42.24
scalar Network.dyn_peer[91] 	lookupTimeSig:mean 	3.93
scalar Network.dyn_peer[91] 	lookupStabilitySig:mean 	0.93690989909228
scalar Network.dyn_peer[91] 	lookupHopsSig:mean 	38.35
scalar Network.dyn_peer[92] 	lookupTimeSig:mean 	3.05
scalar Network.dyn_peer[92] 	lookupStabilitySig:mean 	0.93628296512973
scalar Network.dyn_peer[92] 	lookupHopsSig:mean 	29.545454545455
scalar Network.dyn_peer[93] 	lookupTimeSig:mean 	3.5058823529412
scalar Network.dyn_peer[93] 	lookupStabilitySig:mean 	0.96360377339571
scalar Network.dyn_peer[93] 	lookupHopsSig:mean 	34.088235294118
scalar Network.dyn_peer[94] 	lookupTimeSig:mean 	3.6761904761905
scalar Network.dyn_peer[94] 	lookupStabilitySig:mean 	0.94235640900609
scalar Network.dyn_peer[94] 	lookupHopsSig:mean 	35.809523809524
scalar Network.dyn_peer[95] 	lookupTimeSig:mean 	3.1235294117647
scalar Network.dyn_peer[95] 	lookupStabilitySig:mean 	0.92341565302409
scalar Network.dyn_peer[95] 	lookupHopsSig:mean 	30.294117647059
scalar Network.dyn_peer[96] 	lookupTimeSig:mean 	3.2590909090909
scalar Network.dyn_peer[96] 	lookupStabilitySig:mean 	0.9438195793826
scalar Network.dyn_peer[96] 	lookupHopsSig:mean 	31.636363636364
scalar Network.dyn_peer[97] 	lookupTimeSig:mean 	3.3944444444444
scalar Network.dyn_peer[97] 	lookupStabilitySig:mean 	0.93886723809798
scalar Network.dyn_peer[97] 	lookupHopsSig:mean 	33
scalar Network.dyn_peer[98] 	lookupTimeSig:mean 	2.5666666666667
scalar Network.dyn_peer[98] 	lookupStabilitySig:mean 	0.95890124641698
scalar Network.dyn_peer[98] 	lookupHopsSig:mean 	24.69696969697
scalar Network.dyn_peer[99] 	lookupTimeSig:mean 	2.4730769230769
scalar Network.dyn_peer[99] 	lookupStabilitySig:mean 	0.95794087006316
scalar Network.dyn_peer[99] 	lookupHopsSig:mean 	23.769230769231
scalar Network.dyn_peer[100] 	lookupTimeSig:mean 	3.825
scalar Network.dyn_peer[100] 	lookupStabilitySig:mean 	0.95268687801436
scalar Network.dyn_peer[100] 	lookupHopsSig:mean 	37.3
scalar Network.dyn_peer[101] 	lookupTimeSig:mean 	2.6473684210526
scalar Network.dyn_peer[101] 	lookupStabilitySig:mean 	0.94097467238623
scalar Network.dyn_peer[101] 	lookupHopsSig:mean 	25.526315789474
scalar Network.dyn_peer[102] 	lookupTimeSig:mean 	1.8
scalar Network.dyn_peer[102] 	lookupStabilitySig:mean 	0.9252132876203
scalar Network.dyn_peer[102] 	lookupHopsSig:mean 	17.076923076923
scalar Network.dyn_peer[103] 	lookupTimeSig:mean 	3.0125
scalar Network.dyn_peer[103] 	lookupStabilitySig:mean 	0.94780027218318
scalar Network.dyn_peer[103] 	lookupHopsSig:mean 	29.166666666667
scalar Network.dyn_peer[104] 	lookupTimeSig:mean 	2.909375
scalar Network.dyn_peer[104] 	lookupStabilitySig:mean 	0.95852054403804
scalar Network.dyn_peer[104] 	lookupHopsSig:mean 	28.125
scalar Network.dyn_peer[105] 	lookupTimeSig:mean 	3.1518518518519
scalar Network.dyn_peer[105] 	lookupStabilitySig:mean 	0.96383083591893
scalar Network.dyn_peer[105] 	lookupHopsSig:mean 	30.555555555556
scalar Network.dyn_peer[106] 	lookupTimeSig:mean 	4.3571428571429
scalar Network.dyn_peer[106] 	lookupStabilitySig:mean 	0.94492911959865
scalar Network.dyn_peer[106] 	lookupHopsSig:mean 	42.619047619048
scalar Network.dyn_peer[107] 	lookupTimeSig:mean 	2.4388888888889
scalar Network.dyn_peer[107] 	lookupStabilitySig:mean 	0.94575505413943
scalar Network.dyn_peer[107] 	lookupHopsSig:mean 	23.444444444444
scalar Network.dyn_peer[108] 	lookupTimeSig:mean 	2.9666666666667
scalar Network.dyn_peer[108] 	lookupStabilitySig:mean 	0.94368095375184
scalar Network.dyn_peer[108] 	lookupHopsSig:mean 	28.722222222222
scalar Network.dyn_peer[109] 	lookupTimeSig:mean 	3.3555555555556
scalar Network.dyn_peer[109] 	lookupStabilitySig:mean 	0.93702319715845
scalar Network.dyn_peer[109] 	lookupHopsSig:mean 	32.611111111111
scalar Network.dyn_peer[110] 	lookupTimeSig:mean 	3.0380952380952
scalar Network.dyn_peer[110] 	lookupStabilitySig:mean 	0.94872088132737
scalar Network.dyn_peer[110] 	lookupHopsSig:mean 	29.428571428571
scalar Network.dyn_peer[111] 	lookupTimeSig:mean 	1.7117647058824
scalar Network.dyn_peer[111] 	lookupStabilitySig:mean 	0.94646939460996
scalar Network.dyn_peer[111] 	lookupHopsSig:mean 	16.176470588235
scalar Network.dyn_peer[112] 	lookupTimeSig:mean 	2.3958333333333
scalar Network.dyn_peer[112] 	lookupStabilitySig:mean 	0.95134718096233
scalar Network.dyn_peer[112] 	lookupHopsSig:mean 	23
scalar Network.dyn_peer[113] 	lookupTimeSig:mean 	2.928
scalar Network.dyn_peer[113] 	lookupStabilitySig:mean 	0.95905301420018
scalar Network.dyn_peer[113] 	lookupHopsSig:mean 	28.32
scalar Network.dyn_peer[114] 	lookupTimeSig:mean 	3.3066666666667
scalar Network.dyn_peer[114] 	lookupStabilitySig:mean 	0.93479402495238
scalar Network.dyn_peer[114] 	lookupHopsSig:mean 	32.133333333333
scalar Network.dyn_peer[115] 	lookupTimeSig:mean 	4.2214285714286
scalar Network.dyn_peer[115] 	lookupStabilitySig:mean 	0.96315048385752
scalar Network.dyn_peer[115] 	lookupHopsSig:mean 	41.25
scalar Network.dyn_peer[116] 	lookupTimeSig:mean 	3.1764705882353
scalar Network.dyn_peer[116] 	lookupStabilitySig:mean 	0.94244025099803
scalar Network.dyn_peer[116] 	lookupHopsSig:mean 	30.823529411765
scalar Network.dyn_peer[117] 	lookupTimeSig:mean 	3.1814814814815
scalar Network.dyn_peer[117] 	lookupStabilitySig:mean 	0.96535962244875
scalar Network.dyn_peer[117] 	lookupHopsSig:mean 	30.851851851852
scalar Network.dyn_peer[118] 	lookupTimeSig:mean 	3.0294117647059
scalar Network.dyn_peer[118] 	lookupStabilitySig:mean 	0.9449747515404
scalar Network.dyn_peer[118] 	lookupHopsSig:mean 	29.352941176471
scalar Network.dyn_peer[119] 	lookupTimeSig:mean 	2.6142857142857
scalar Network.dyn_peer[119] 	lookupStabilitySig:mean 	0.9630513794504
scalar Network.dyn_peer[119] 	lookupHopsSig:mean 	25.178571428571
scalar Network.dyn_peer[120] 	lookupTimeSig:mean 	4.2736842105263
scalar Network.dyn_peer[120] 	lookupStabilitySig:mean 	0.94528618317686
scalar Network.dyn_peer[120] 	lookupHopsSig:mean 	41.789473684211
scalar Network.dyn_peer[121] 	lookupTimeSig:mean 	2.6941176470588
scalar Network.dyn_peer[121] 	lookupStabilitySig:mean 	0.94185211976497
scalar Network.dyn_peer[121] 	lookupHopsSig:mean 	26
scalar Network.dyn_peer[122] 	lookupTimeSig:mean 	2.9913043478261
scalar Network.dyn_peer[122] 	lookupStabilitySig:mean 	0.95509636258383
scalar Network.dyn_peer[122] 	lookupHopsSig:mean 	28.95652173913
scalar Network.dyn_peer[123] 	lookupTimeSig:mean 	2.7545454545455
scalar Network.dyn_peer[123] 	lookupStabilitySig:mean 	0.96359293749133
scalar Network.dyn_peer[123] 	lookupHopsSig:mean 	26.590909090909
scalar Network.dyn_peer[124] 	lookupTimeSig:mean 	3.0434782608696
scalar Network.dyn_peer[124] 	lookupStabilitySig:mean 	0.95720883831382
scalar Network.dyn_peer[124] 	lookupHopsSig:mean 	29.478260869565
scalar Network.dyn_peer[125] 	lookupTimeSig:mean 	3.7714285714286
scalar Network.dyn_peer[125] 	lookupStabilitySig:mean 	0.9531061658414
scalar Network.dyn_peer[125] 	lookupHopsSig:mean 	36.761904761905
scalar Network.dyn_peer[126] 	lookupTimeSig:mean 	3.3555555555556
scalar Network.dyn_peer[126] 	lookupStabilitySig:mean 	0.95068457567443
scalar Network.dyn_peer[126] 	lookupHopsSig:mean 	32.611111111111
scalar Network.dyn_peer[127] 	lookupTimeSig:mean 	3.0083333333333
scalar Network.dyn_peer[127] 	lookupStabilitySig:mean 	0.96213293750285
scalar Network.dyn_peer[127] 	lookupHopsSig:mean 	29.125
scalar Network.dyn_peer[128] 	lookupTimeSig:mean 	4.0631578947368
scalar Network.dyn_peer[128] 	lookupStabilitySig:mean 	0.95521702093691
scalar Network.dyn_peer[128] 	lookupHopsSig:mean 	39.684210526316
scalar Network.dyn_peer[129] 	lookupTimeSig:mean 	2.515
scalar Network.dyn_peer[129] 	lookupStabilitySig:mean 	0.95006490810192
scalar Network.dyn_peer[129] 	lookupHopsSig:mean 	24.2
scalar Network.dyn_peer[130] 	lookupTimeSig:mean 	2.1590909090909
scalar Network.dyn_peer[130] 	lookupStabilitySig:mean 	0.95593825185841
scalar Network.dyn_peer[130] 	lookupHopsSig:mean 	20.636363636364
scalar Network.dyn_peer[131] 	lookupTimeSig:mean 	3.7125
scalar Network.dyn_peer[131] 	lookupStabilitySig:mean 	0.95522803436082
scalar Network.dyn_peer[131] 	lookupHopsSig:mean 	36.166666666667
scalar Network.dyn_peer[132] 	lookupTimeSig:mean 	3.4090909090909
scalar Network.dyn_peer[132] 	lookupStabilitySig:mean 	0.95016345250505
scalar Network.dyn_peer[132] 	lookupHopsSig:mean 	33.181818181818
scalar Network.dyn_peer[133] 	lookupTimeSig:mean 	3.59
scalar Network.dyn_peer[133] 	lookupStabilitySig:mean 	0.94944406102877
scalar Network.dyn_peer[133] 	lookupHopsSig:mean 	34.95
scalar Network.dyn_peer[134] 	lookupTimeSig:mean 	2.0384615384615
scalar Network.dyn_peer[134] 	lookupStabilitySig:mean 	0.94841583694618
scalar Network.dyn_peer[134] 	lookupHopsSig:mean 	19.461538461538
scalar Network.dyn_peer[135] 	lookupTimeSig:mean 	2.9714285714286
scalar Network.dyn_peer[135] 	lookupStabilitySig:mean 	0.94349466813063
scalar Network.dyn_peer[135] 	lookupHopsSig:mean 	28.785714285714
scalar Network.dyn_peer[136] 	lookupTimeSig:mean 	2.3076923076923
scalar Network.dyn_peer[136] 	lookupStabilitySig:mean 	0.96670425558785
scalar Network.dyn_peer[136] 	lookupHopsSig:mean 	22.115384615385
scalar Network.dyn_peer[137] 	lookupTimeSig:mean 	2.73
scalar Network.dyn_peer[137] 	lookupStabilitySig:mean 	0.91977060073987
scalar Network.dyn_peer[137] 	lookupHopsSig:mean 	26.4
scalar Network.dyn_peer[138] 	lookupTimeSig:mean 	3.1944444444444
scalar Network.dyn_peer[138] 	lookupStabilitySig:mean 	0.96013406614333
scalar Network.dyn_peer[138] 	lookupHopsSig:mean 	31
scalar Network.dyn_peer[139] 	lookupTimeSig:mean 	2.6047619047619
scalar Network.dyn_peer[139] 	lookupStabilitySig:mean 	0.9592268616848
scalar Network.dyn_peer[139] 	lookupHopsSig:mean 	25.095238095238
scalar Network.dyn_peer[140] 	lookupTimeSig:mean 	2.6736842105263
scalar Network.dyn_peer[140] 	lookupStabilitySig:mean 	0.95500152960028
scalar Network.dyn_peer[140] 	lookupHopsSig:mean 	25.789473684211
scalar Network.dyn_peer[141] 	lookupTimeSig:mean 	2.724
scalar Network.dyn_peer[141] 	lookupStabilitySig:mean 	0.96465301532298
scalar Network.dyn_peer[141] 	lookupHopsSig:mean 	26.28
scalar Network.dyn_peer[142] 	lookupTimeSig:mean 	3.4833333333333
scalar Network.dyn_peer[142] 	lookupStabilitySig:mean 	0.94990642536949
scalar Network.dyn_peer[142] 	lookupHopsSig:mean 	33.888888888889
scalar Network.dyn_peer[143] 	lookupTimeSig:mean 	3.5181818181818
scalar Network.dyn_peer[143] 	lookupStabilitySig:mean 	0.96940965158159
scalar Network.dyn_peer[143] 	lookupHopsSig:mean 	34.212121212121
scalar Network.dyn_peer[144] 	lookupTimeSig:mean 	3.7666666666667
scalar Network.dyn_peer[144] 	lookupStabilitySig:mean 	0.9431901514375
scalar Network.dyn_peer[144] 	lookupHopsSig:mean 	36.733333333333
scalar Network.dyn_peer[145] 	lookupTimeSig:mean 	3.34
scalar Network.dyn_peer[145] 	lookupStabilitySig:mean 	0.95335504882969
scalar Network.dyn_peer[145] 	lookupHopsSig:mean 	32.45
scalar Network.dyn_peer[146] 	lookupTimeSig:mean 	3.4541666666667
scalar Network.dyn_peer[146] 	lookupStabilitySig:mean 	0.95731080305995
scalar Network.dyn_peer[146] 	lookupHopsSig:mean 	33.583333333333
scalar Network.dyn_peer[147] 	lookupTimeSig:mean 	2.905
scalar Network.dyn_peer[147] 	lookupStabilitySig:mean 	0.95919201985234
scalar Network.dyn_peer[147] 	lookupHopsSig:mean 	28.1
scalar Network.dyn_peer[148] 	lookupTimeSig:mean 	2.2666666666667
scalar Network.dyn_peer[148] 	lookupStabilitySig:mean 	0.94579515782081
scalar Network.dyn_peer[148] 	lookupHopsSig:mean 	21.722222222222
scalar Network.dyn_peer[149] 	lookupTimeSig:mean 	3.4090909090909
scalar Network.dyn_peer[149] 	lookupStabilitySig:mean 	0.96737016930076
scalar Network.dyn_peer[149] 	lookupHopsSig:mean 	33.136363636364
scalar Network.dyn_peer[150] 	lookupTimeSig:mean 	2.9272727272727
scalar Network.dyn_peer[150] 	lookupStabilitySig:mean 	0.95408868355761
scalar Network.dyn_peer[150] 	lookupHopsSig:mean 	28.363636363636
scalar Network.dyn_peer[151] 	lookupTimeSig:mean 	3.3125
scalar Network.dyn_peer[151] 	lookupStabilitySig:mean 	0.95150106915389
scalar Network.dyn_peer[151] 	lookupHopsSig:mean 	32.1875
scalar Network.dyn_peer[152] 	lookupTimeSig:mean 	3.5739130434783
scalar Network.dyn_peer[152] 	lookupStabilitySig:mean 	0.9593736513862
scalar Network.dyn_peer[152] 	lookupHopsSig:mean 	34.782608695652
scalar Network.dyn_peer[153] 	lookupTimeSig:mean 	3.3434782608696
scalar Network.dyn_peer[153] 	lookupStabilitySig:mean 	0.9578369941117
scalar Network.dyn_peer[153] 	lookupHopsSig:mean 	32.478260869565
scalar Network.dyn_peer[154] 	lookupTimeSig:mean 	1.9066666666667
scalar Network.dyn_peer[154] 	lookupStabilitySig:mean 	0.94654997483206
scalar Network.dyn_peer[154] 	lookupHopsSig:mean 	18.133333333333
scalar Network.dyn_peer[155] 	lookupTimeSig:mean 	3.6275862068966
scalar Network.dyn_peer[155] 	lookupStabilitySig:mean 	0.96875186146092
scalar Network.dyn_peer[155] 	lookupHopsSig:mean 	35.310344827586
scalar Network.dyn_peer[156] 	lookupTimeSig:mean 	2.8695652173913
scalar Network.dyn_peer[156] 	lookupStabilitySig:mean 	0.96316816052422
scalar Network.dyn_peer[156] 	lookupHopsSig:mean 	27.739130434783
scalar Network.dyn_peer[157] 	lookupTimeSig:mean 	3.34
scalar Network.dyn_peer[157] 	lookupStabilitySig:mean 	0.96892778942827
scalar Network.dyn_peer[157] 	lookupHopsSig:mean 	32.44
scalar Network.dyn_peer[158] 	lookupTimeSig:mean 	3.8380952380952
scalar Network.dyn_peer[158] 	lookupStabilitySig:mean 	0.95944836706899
scalar Network.dyn_peer[158] 	lookupHopsSig:mean 	37.428571428571
scalar Network.dyn_peer[159] 	lookupTimeSig:mean 	3.9814814814815
scalar Network.dyn_peer[159] 	lookupStabilitySig:mean 	0.96668114921044
scalar Network.dyn_peer[159] 	lookupHopsSig:mean 	38.851851851852
scalar Network.dyn_peer[160] 	lookupTimeSig:mean 	3.9846153846154
scalar Network.dyn_peer[160] 	lookupStabilitySig:mean 	0.96208407497929
scalar Network.dyn_peer[160] 	lookupHopsSig:mean 	38.884615384615
scalar Network.dyn_peer[161] 	lookupTimeSig:mean 	2.7521739130435
scalar Network.dyn_peer[161] 	lookupStabilitySig:mean 	0.96911007759121
scalar Network.dyn_peer[161] 	lookupHopsSig:mean 	26.565217391304
scalar Network.dyn_peer[162] 	lookupTimeSig:mean 	3.4818181818182
scalar Network.dyn_peer[162] 	lookupStabilitySig:mean 	0.95855696066494
scalar Network.dyn_peer[162] 	lookupHopsSig:mean 	33.863636363636
scalar Network.dyn_peer[163] 	lookupTimeSig:mean 	3.05
scalar Network.dyn_peer[163] 	lookupStabilitySig:mean 	0.95455005115364
scalar Network.dyn_peer[163] 	lookupHopsSig:mean 	29.55
scalar Network.dyn_peer[164] 	lookupTimeSig:mean 	3.1333333333333
scalar Network.dyn_peer[164] 	lookupStabilitySig:mean 	0.95901029959011
scalar Network.dyn_peer[164] 	lookupHopsSig:mean 	30.4
scalar Network.dyn_peer[165] 	lookupTimeSig:mean 	2.8588235294118
scalar Network.dyn_peer[165] 	lookupStabilitySig:mean 	0.94786297140972
scalar Network.dyn_peer[165] 	lookupHopsSig:mean 	27.647058823529
scalar Network.dyn_peer[166] 	lookupTimeSig:mean 	3.524
scalar Network.dyn_peer[166] 	lookupStabilitySig:mean 	0.96814599549398
scalar Network.dyn_peer[166] 	lookupHopsSig:mean 	34.28
scalar Network.dyn_peer[167] 	lookupTimeSig:mean 	3.6862068965517
scalar Network.dyn_peer[167] 	lookupStabilitySig:mean 	0.96478640719253
scalar Network.dyn_peer[167] 	lookupHopsSig:mean 	35.896551724138
scalar Network.dyn_peer[168] 	lookupTimeSig:mean 	3.97
scalar Network.dyn_peer[168] 	lookupStabilitySig:mean 	0.93721979795955
scalar Network.dyn_peer[168] 	lookupHopsSig:mean 	38.8
scalar Network.dyn_peer[169] 	lookupTimeSig:mean 	3.8142857142857
scalar Network.dyn_peer[169] 	lookupStabilitySig:mean 	0.94996607962197
scalar Network.dyn_peer[169] 	lookupHopsSig:mean 	37.214285714286
scalar Network.dyn_peer[170] 	lookupTimeSig:mean 	2.5
scalar Network.dyn_peer[170] 	lookupStabilitySig:mean 	0.97290491973538
scalar Network.dyn_peer[170] 	lookupHopsSig:mean 	24.047619047619
scalar Network.dyn_peer[171] 	lookupTimeSig:mean 	4.5153846153846
scalar Network.dyn_peer[171] 	lookupStabilitySig:mean 	0.9398173026454
scalar Network.dyn_peer[171] 	lookupHopsSig:mean 	44.230769230769
scalar Network.dyn_peer[172] 	lookupTimeSig:mean 	3.2708333333333
scalar Network.dyn_peer[172] 	lookupStabilitySig:mean 	0.95926468170364
scalar Network.dyn_peer[172] 	lookupHopsSig:mean 	31.75
scalar Network.dyn_peer[173] 	lookupTimeSig:mean 	3.2785714285714
scalar Network.dyn_peer[173] 	lookupStabilitySig:mean 	0.94184071226378
scalar Network.dyn_peer[173] 	lookupHopsSig:mean 	31.857142857143
scalar Network.dyn_peer[174] 	lookupTimeSig:mean 	3.7846153846154
scalar Network.dyn_peer[174] 	lookupStabilitySig:mean 	0.94128787582024
scalar Network.dyn_peer[174] 	lookupHopsSig:mean 	36.923076923077
scalar Network.dyn_peer[175] 	lookupTimeSig:mean 	2.8954545454545
scalar Network.dyn_peer[175] 	lookupStabilitySig:mean 	0.97186671880296
scalar Network.dyn_peer[175] 	lookupHopsSig:mean 	28
scalar Network.dyn_peer[176] 	lookupTimeSig:mean 	4.0842105263158
scalar Network.dyn_peer[176] 	lookupStabilitySig:mean 	0.97045145344332
scalar Network.dyn_peer[176] 	lookupHopsSig:mean 	39.894736842105
scalar Network.dyn_peer[177] 	lookupTimeSig:mean 	2.1473684210526
scalar Network.dyn_peer[177] 	lookupStabilitySig:mean 	0.95654422650114
scalar Network.dyn_peer[177] 	lookupHopsSig:mean 	20.526315789474
scalar Network.dyn_peer[178] 	lookupTimeSig:mean 	3.8545454545455
scalar Network.dyn_peer[178] 	lookupStabilitySig:mean 	0.94167349800806
scalar Network.dyn_peer[178] 	lookupHopsSig:mean 	37.636363636364
scalar Network.dyn_peer[179] 	lookupTimeSig:mean 	2.9052631578947
scalar Network.dyn_peer[179] 	lookupStabilitySig:mean 	0.95738636371435
scalar Network.dyn_peer[179] 	lookupHopsSig:mean 	28.105263157895
scalar Network.dyn_peer[180] 	lookupTimeSig:mean 	3.9941176470588
scalar Network.dyn_peer[180] 	lookupStabilitySig:mean 	0.95272128906628
scalar Network.dyn_peer[180] 	lookupHopsSig:mean 	39
scalar Network.dyn_peer[181] 	lookupTimeSig:mean 	2.6826086956522
scalar Network.dyn_peer[181] 	lookupStabilitySig:mean 	0.96183643261801
scalar Network.dyn_peer[181] 	lookupHopsSig:mean 	25.869565217391
scalar Network.dyn_peer[182] 	lookupTimeSig:mean 	3.1315789473684
scalar Network.dyn_peer[182] 	lookupStabilitySig:mean 	0.95876293065713
scalar Network.dyn_peer[182] 	lookupHopsSig:mean 	30.368421052632
scalar Network.dyn_peer[183] 	lookupTimeSig:mean 	3.1454545454545
scalar Network.dyn_peer[183] 	lookupStabilitySig:mean 	0.97419964742254
scalar Network.dyn_peer[183] 	lookupHopsSig:mean 	30.5
scalar Network.dyn_peer[184] 	lookupTimeSig:mean 	3.4823529411765
scalar Network.dyn_peer[184] 	lookupStabilitySig:mean 	0.96019063166836
scalar Network.dyn_peer[184] 	lookupHopsSig:mean 	33.882352941176
scalar Network.dyn_peer[185] 	lookupTimeSig:mean 	2.9290322580645
scalar Network.dyn_peer[185] 	lookupStabilitySig:mean 	0.9735571425333
scalar Network.dyn_peer[185] 	lookupHopsSig:mean 	28.322580645161
scalar Network.dyn_peer[186] 	lookupTimeSig:mean 	2.1285714285714
scalar Network.dyn_peer[186] 	lookupStabilitySig:mean 	0.94751330212291
scalar Network.dyn_peer[186] 	lookupHopsSig:mean 	20.357142857143
scalar Network.dyn_peer[187] 	lookupTimeSig:mean 	3.9142857142857
scalar Network.dyn_peer[187] 	lookupStabilitySig:mean 	0.94354971012633
scalar Network.dyn_peer[187] 	lookupHopsSig:mean 	38.214285714286
scalar Network.dyn_peer[188] 	lookupTimeSig:mean 	5.54375
scalar Network.dyn_peer[188] 	lookupStabilitySig:mean 	0.9615839929611
scalar Network.dyn_peer[188] 	lookupHopsSig:mean 	54.5
scalar Network.dyn_peer[189] 	lookupTimeSig:mean 	3.3833333333333
scalar Network.dyn_peer[189] 	lookupStabilitySig:mean 	0.96368913760913
scalar Network.dyn_peer[189] 	lookupHopsSig:mean 	32.875
scalar Network.dyn_peer[190] 	lookupTimeSig:mean 	1.9526315789474
scalar Network.dyn_peer[190] 	lookupStabilitySig:mean 	0.96962462910941
scalar Network.dyn_peer[190] 	lookupHopsSig:mean 	18.578947368421
scalar Network.dyn_peer[191] 	lookupTimeSig:mean 	2.3833333333333
scalar Network.dyn_peer[191] 	lookupStabilitySig:mean 	0.96591134669143
scalar Network.dyn_peer[191] 	lookupHopsSig:mean 	22.875
scalar Network.dyn_peer[192] 	lookupTimeSig:mean 	3.6772727272727
scalar Network.dyn_peer[192] 	lookupStabilitySig:mean 	0.96468245686794
scalar Network.dyn_peer[192] 	lookupHopsSig:mean 	35.818181818182
scalar Network.dyn_peer[193] 	lookupTimeSig:mean 	3.072
scalar Network.dyn_peer[193] 	lookupStabilitySig:mean 	0.96999710983131
scalar Network.dyn_peer[193] 	lookupHopsSig:mean 	29.76
scalar Network.dyn_peer[194] 	lookupTimeSig:mean 	2.6263157894737
scalar Network.dyn_peer[194] 	lookupStabilitySig:mean 	0.95567490702103
scalar Network.dyn_peer[194] 	lookupHopsSig:mean 	25.315789473684
scalar Network.dyn_peer[195] 	lookupTimeSig:mean 	2.6217391304348
scalar Network.dyn_peer[195] 	lookupStabilitySig:mean 	0.96495510211832
scalar Network.dyn_peer[195] 	lookupHopsSig:mean 	25.260869565217
scalar Network.dyn_peer[196] 	lookupTimeSig:mean 	3.125
scalar Network.dyn_peer[196] 	lookupStabilitySig:mean 	0.94932997348951
scalar Network.dyn_peer[196] 	lookupHopsSig:mean 	30.3125
scalar Network.dyn_peer[197] 	lookupTimeSig:mean 	3.0052631578947
scalar Network.dyn_peer[197] 	lookupStabilitySig:mean 	0.9565394395705
scalar Network.dyn_peer[197] 	lookupHopsSig:mean 	29.105263157895
scalar Network.dyn_peer[198] 	lookupTimeSig:mean 	3.937037037037
scalar Network.dyn_peer[198] 	lookupStabilitySig:mean 	0.96774942813338
scalar Network.dyn_peer[198] 	lookupHopsSig:mean 	38.407407407407
scalar Network.dyn_peer[199] 	lookupTimeSig:mean 	3.4967741935484
scalar Network.dyn_peer[199] 	lookupStabilitySig:mean 	0.97192842692828
scalar Network.dyn_peer[199] 	lookupHopsSig:mean 	34
scalar Network.dyn_peer[200] 	lookupTimeSig:mean 	3.2588235294118
scalar Network.dyn_peer[200] 	lookupStabilitySig:mean 	0.95820629832965
scalar Network.dyn_peer[200] 	lookupHopsSig:mean 	31.647058823529
scalar Network.dyn_peer[201] 	lookupTimeSig:mean 	3.9833333333333
scalar Network.dyn_peer[201] 	lookupStabilitySig:mean 	0.95576007171379
scalar Network.dyn_peer[201] 	lookupHopsSig:mean 	38.916666666667
scalar Network.dyn_peer[202] 	lookupTimeSig:mean 	2.4954545454545
scalar Network.dyn_peer[202] 	lookupStabilitySig:mean 	0.96771709014535
scalar Network.dyn_peer[202] 	lookupHopsSig:mean 	24
scalar Network.dyn_peer[203] 	lookupTimeSig:mean 	4.547619047619
scalar Network.dyn_peer[203] 	lookupStabilitySig:mean 	0.96132063528612
scalar Network.dyn_peer[203] 	lookupHopsSig:mean 	44.52380952381
scalar Network.dyn_peer[204] 	lookupTimeSig:mean 	2.948275862069
scalar Network.dyn_peer[204] 	lookupStabilitySig:mean 	0.97375927329192
scalar Network.dyn_peer[204] 	lookupHopsSig:mean 	28.51724137931
scalar Network.dyn_peer[205] 	lookupTimeSig:mean 	2.4818181818182
scalar Network.dyn_peer[205] 	lookupStabilitySig:mean 	0.94864666555077
scalar Network.dyn_peer[205] 	lookupHopsSig:mean 	23.909090909091
scalar Network.dyn_peer[206] 	lookupTimeSig:mean 	2.5545454545455
scalar Network.dyn_peer[206] 	lookupStabilitySig:mean 	0.9671917852988
scalar Network.dyn_peer[206] 	lookupHopsSig:mean 	24.590909090909
scalar Network.dyn_peer[207] 	lookupTimeSig:mean 	3.275
scalar Network.dyn_peer[207] 	lookupStabilitySig:mean 	0.97024247326356
scalar Network.dyn_peer[207] 	lookupHopsSig:mean 	31.785714285714
scalar Network.dyn_peer[208] 	lookupTimeSig:mean 	2.5642857142857
scalar Network.dyn_peer[208] 	lookupStabilitySig:mean 	0.96057353544581
scalar Network.dyn_peer[208] 	lookupHopsSig:mean 	24.714285714286
scalar Network.dyn_peer[209] 	lookupTimeSig:mean 	3.2384615384615
scalar Network.dyn_peer[209] 	lookupStabilitySig:mean 	0.95430183374824
scalar Network.dyn_peer[209] 	lookupHopsSig:mean 	31.461538461538
scalar Network.dyn_peer[210] 	lookupTimeSig:mean 	3.212
scalar Network.dyn_peer[210] 	lookupStabilitySig:mean 	0.96719872316346
scalar Network.dyn_peer[210] 	lookupHopsSig:mean 	31.16
scalar Network.dyn_peer[211] 	lookupTimeSig:mean 	4.0947368421053
scalar Network.dyn_peer[211] 	lookupStabilitySig:mean 	0.95805015836499
scalar Network.dyn_peer[211] 	lookupHopsSig:mean 	40
scalar Network.dyn_peer[212] 	lookupTimeSig:mean 	2.9
scalar Network.dyn_peer[212] 	lookupStabilitySig:mean 	0.94224616667877
scalar Network.dyn_peer[212] 	lookupHopsSig:mean 	28.111111111111
scalar Network.dyn_peer[213] 	lookupTimeSig:mean 	3.605
scalar Network.dyn_peer[213] 	lookupStabilitySig:mean 	0.95878540656995
scalar Network.dyn_peer[213] 	lookupHopsSig:mean 	35.1
scalar Network.dyn_peer[214] 	lookupTimeSig:mean 	3.5380952380952
scalar Network.dyn_peer[214] 	lookupStabilitySig:mean 	0.97078142257496
scalar Network.dyn_peer[214] 	lookupHopsSig:mean 	34.428571428571
scalar Network.dyn_peer[215] 	lookupTimeSig:mean 	2.84375
scalar Network.dyn_peer[215] 	lookupStabilitySig:mean 	0.95615053930669
scalar Network.dyn_peer[215] 	lookupHopsSig:mean 	27.5
scalar Network.dyn_peer[216] 	lookupTimeSig:mean 	3.4947368421053
scalar Network.dyn_peer[216] 	lookupStabilitySig:mean 	0.95697745095056
scalar Network.dyn_peer[216] 	lookupHopsSig:mean 	34
scalar Network.dyn_peer[217] 	lookupTimeSig:mean 	2.4588235294118
scalar Network.dyn_peer[217] 	lookupStabilitySig:mean 	0.96285409537171
scalar Network.dyn_peer[217] 	lookupHopsSig:mean 	23.647058823529
scalar Network.dyn_peer[218] 	lookupTimeSig:mean 	2.95
scalar Network.dyn_peer[218] 	lookupStabilitySig:mean 	0.94558044154352
scalar Network.dyn_peer[218] 	lookupHopsSig:mean 	28.583333333333
scalar Network.dyn_peer[219] 	lookupTimeSig:mean 	2.3
scalar Network.dyn_peer[219] 	lookupStabilitySig:mean 	0.94262641582948
scalar Network.dyn_peer[219] 	lookupHopsSig:mean 	22.083333333333
scalar Network.dyn_peer[220] 	lookupTimeSig:mean 	3.91
scalar Network.dyn_peer[220] 	lookupStabilitySig:mean 	0.96123829010176
scalar Network.dyn_peer[220] 	lookupHopsSig:mean 	38.15
scalar Network.dyn_peer[221] 	lookupTimeSig:mean 	2.6269230769231
scalar Network.dyn_peer[221] 	lookupStabilitySig:mean 	0.96893005339483
scalar Network.dyn_peer[221] 	lookupHopsSig:mean 	25.307692307692
scalar Network.dyn_peer[222] 	lookupTimeSig:mean 	4.2238095238095
scalar Network.dyn_peer[222] 	lookupStabilitySig:mean 	0.9647175521989
scalar Network.dyn_peer[222] 	lookupHopsSig:mean 	41.285714285714
scalar Network.dyn_peer[223] 	lookupTimeSig:mean 	1.7
scalar Network.dyn_peer[223] 	lookupStabilitySig:mean 	0.93625269718468
scalar Network.dyn_peer[223] 	lookupHopsSig:mean 	16.1
scalar Network.dyn_peer[224] 	lookupTimeSig:mean 	3.8263157894737
scalar Network.dyn_peer[224] 	lookupStabilitySig:mean 	0.95738638917867
scalar Network.dyn_peer[224] 	lookupHopsSig:mean 	37.315789473684
scalar Network.dyn_peer[225] 	lookupTimeSig:mean 	2.9789473684211
scalar Network.dyn_peer[225] 	lookupStabilitySig:mean 	0.95922992694633
scalar Network.dyn_peer[225] 	lookupHopsSig:mean 	28.842105263158
scalar Network.dyn_peer[226] 	lookupTimeSig:mean 	3.8111111111111
scalar Network.dyn_peer[226] 	lookupStabilitySig:mean 	0.96156649120773
scalar Network.dyn_peer[226] 	lookupHopsSig:mean 	37.166666666667
scalar Network.dyn_peer[227] 	lookupTimeSig:mean 	4.5055555555556
scalar Network.dyn_peer[227] 	lookupStabilitySig:mean 	0.96786903752945
scalar Network.dyn_peer[227] 	lookupHopsSig:mean 	44.111111111111
scalar Network.dyn_peer[228] 	lookupTimeSig:mean 	4.5058823529412
scalar Network.dyn_peer[228] 	lookupStabilitySig:mean 	0.96470355283579
scalar Network.dyn_peer[228] 	lookupHopsSig:mean 	44.117647058824
scalar Network.dyn_peer[229] 	lookupTimeSig:mean 	3.4555555555556
scalar Network.dyn_peer[229] 	lookupStabilitySig:mean 	0.96759136031485
scalar Network.dyn_peer[229] 	lookupHopsSig:mean 	33.611111111111
scalar Network.dyn_peer[230] 	lookupTimeSig:mean 	2.3176470588235
scalar Network.dyn_peer[230] 	lookupStabilitySig:mean 	0.97019261980484
scalar Network.dyn_peer[230] 	lookupHopsSig:mean 	22.235294117647
scalar Network.dyn_peer[231] 	lookupTimeSig:mean 	2.9625
scalar Network.dyn_peer[231] 	lookupStabilitySig:mean 	0.95369120690157
scalar Network.dyn_peer[231] 	lookupHopsSig:mean 	28.6875
scalar Network.dyn_peer[232] 	lookupTimeSig:mean 	4.8636363636364
scalar Network.dyn_peer[232] 	lookupStabilitySig:mean 	0.96938483668915
scalar Network.dyn_peer[232] 	lookupHopsSig:mean 	47.681818181818
scalar Network.dyn_peer[233] 	lookupTimeSig:mean 	2.5705882352941
scalar Network.dyn_peer[233] 	lookupStabilitySig:mean 	0.96789999258951
scalar Network.dyn_peer[233] 	lookupHopsSig:mean 	24.764705882353
scalar Network.dyn_peer[234] 	lookupTimeSig:mean 	3.884
scalar Network.dyn_peer[234] 	lookupStabilitySig:mean 	0.97701182674617
scalar Network.dyn_peer[234] 	lookupHopsSig:mean 	37.88
scalar Network.dyn_peer[235] 	lookupTimeSig:mean 	3.5
scalar Network.dyn_peer[235] 	lookupStabilitySig:mean 	0.96618049508626
scalar Network.dyn_peer[235] 	lookupHopsSig:mean 	34.047619047619
scalar Network.dyn_peer[236] 	lookupTimeSig:mean 	2.92
scalar Network.dyn_peer[236] 	lookupStabilitySig:mean 	0.96836730369367
scalar Network.dyn_peer[236] 	lookupHopsSig:mean 	28.24
scalar Network.dyn_peer[237] 	lookupTimeSig:mean 	2.9130434782609
scalar Network.dyn_peer[237] 	lookupStabilitySig:mean 	0.96654115351038
scalar Network.dyn_peer[237] 	lookupHopsSig:mean 	28.173913043478
scalar Network.dyn_peer[238] 	lookupTimeSig:mean 	3.8916666666667
scalar Network.dyn_peer[238] 	lookupStabilitySig:mean 	0.96701883450927
scalar Network.dyn_peer[238] 	lookupHopsSig:mean 	37.958333333333
scalar Network.dyn_peer[239] 	lookupTimeSig:mean 	3.3285714285714
scalar Network.dyn_peer[239] 	lookupStabilitySig:mean 	0.96096318220121
scalar Network.dyn_peer[239] 	lookupHopsSig:mean 	32.357142857143
scalar Network.dyn_peer[240] 	lookupTimeSig:mean 	2.7222222222222
scalar Network.dyn_peer[240] 	lookupStabilitySig:mean 	0.97286436179463
scalar Network.dyn_peer[240] 	lookupHopsSig:mean 	26.259259259259
scalar Network.dyn_peer[241] 	lookupTimeSig:mean 	2.6
scalar Network.dyn_peer[241] 	lookupStabilitySig:mean 	0.96057559760726
scalar Network.dyn_peer[241] 	lookupHopsSig:mean 	25.058823529412
scalar Network.dyn_peer[242] 	lookupTimeSig:mean 	2.9352941176471
scalar Network.dyn_peer[242] 	lookupStabilitySig:mean 	0.95973883357639
scalar Network.dyn_peer[242] 	lookupHopsSig:mean 	28.411764705882
scalar Network.dyn_peer[243] 	lookupTimeSig:mean 	3.6909090909091
scalar Network.dyn_peer[243] 	lookupStabilitySig:mean 	0.96931875431487
scalar Network.dyn_peer[243] 	lookupHopsSig:mean 	35.954545454545
scalar Network.dyn_peer[244] 	lookupTimeSig:mean 	3.1227272727273
scalar Network.dyn_peer[244] 	lookupStabilitySig:mean 	0.96708498198793
scalar Network.dyn_peer[244] 	lookupHopsSig:mean 	30.272727272727
scalar Network.dyn_peer[245] 	lookupTimeSig:mean 	2.6333333333333
scalar Network.dyn_peer[245] 	lookupStabilitySig:mean 	0.97113267945159
scalar Network.dyn_peer[245] 	lookupHopsSig:mean 	25.380952380952
scalar Network.dyn_peer[246] 	lookupTimeSig:mean 	3.2277777777778
scalar Network.dyn_peer[246] 	lookupStabilitySig:mean 	0.96145965103319
scalar Network.dyn_peer[246] 	lookupHopsSig:mean 	31.333333333333
scalar Network.dyn_peer[247] 	lookupTimeSig:mean 	3.5645161290323
scalar Network.dyn_peer[247] 	lookupStabilitySig:mean 	0.97643860750888
scalar Network.dyn_peer[247] 	lookupHopsSig:mean 	34.677419354839
scalar Network.dyn_peer[248] 	lookupTimeSig:mean 	3.96
scalar Network.dyn_peer[248] 	lookupStabilitySig:mean 	0.94140878478065
scalar Network.dyn_peer[248] 	lookupHopsSig:mean 	38.7
scalar Network.dyn_peer[249] 	lookupTimeSig:mean 	1.57
scalar Network.dyn_peer[249] 	lookupStabilitySig:mean 	0.9540251581464
scalar Network.dyn_peer[249] 	lookupHopsSig:mean 	14.8
scalar Network.dyn_peer[250] 	lookupTimeSig:mean 	3.5727272727273
scalar Network.dyn_peer[250] 	lookupStabilitySig:mean 	0.96578973480924
scalar Network.dyn_peer[250] 	lookupHopsSig:mean 	34.772727272727
scalar Network.dyn_peer[251] 	lookupTimeSig:mean 	1.95
scalar Network.dyn_peer[251] 	lookupStabilitySig:mean 	0.9714979930755
scalar Network.dyn_peer[251] 	lookupHopsSig:mean 	18.555555555556
scalar Network.dyn_peer[252] 	lookupTimeSig:mean 	3.2588235294118
scalar Network.dyn_peer[252] 	lookupStabilitySig:mean 	0.96017117331298
scalar Network.dyn_peer[252] 	lookupHopsSig:mean 	31.647058823529
scalar Network.dyn_peer[253] 	lookupTimeSig:mean 	3.28125
scalar Network.dyn_peer[253] 	lookupStabilitySig:mean 	0.95510091923643
scalar Network.dyn_peer[253] 	lookupHopsSig:mean 	31.875
scalar Network.dyn_peer[254] 	lookupTimeSig:mean 	3.4136363636364
scalar Network.dyn_peer[254] 	lookupStabilitySig:mean 	0.96649591296657
scalar Network.dyn_peer[254] 	lookupHopsSig:mean 	33.181818181818
scalar Network.dyn_peer[255] 	lookupTimeSig:mean 	3.304347826087
scalar Network.dyn_peer[255] 	lookupStabilitySig:mean 	0.97149760047298
scalar Network.dyn_peer[255] 	lookupHopsSig:mean 	32.086956521739
scalar Network.dyn_peer[256] 	lookupTimeSig:mean 	2.6944444444444
scalar Network.dyn_peer[256] 	lookupStabilitySig:mean 	0.96554288806834
scalar Network.dyn_peer[256] 	lookupHopsSig:mean 	26
scalar Network.dyn_peer[257] 	lookupTimeSig:mean 	2.8722222222222
scalar Network.dyn_peer[257] 	lookupStabilitySig:mean 	0.97165532712825
scalar Network.dyn_peer[257] 	lookupHopsSig:mean 	27.777777777778
scalar Network.dyn_peer[258] 	lookupTimeSig:mean 	4.2586206896552
scalar Network.dyn_peer[258] 	lookupStabilitySig:mean 	0.97563182152527
scalar Network.dyn_peer[258] 	lookupHopsSig:mean 	41.620689655172
scalar Network.dyn_peer[259] 	lookupTimeSig:mean 	2.3555555555556
scalar Network.dyn_peer[259] 	lookupStabilitySig:mean 	0.95316026991026
scalar Network.dyn_peer[259] 	lookupHopsSig:mean 	22.666666666667
scalar Network.dyn_peer[260] 	lookupTimeSig:mean 	3.4526315789474
scalar Network.dyn_peer[260] 	lookupStabilitySig:mean 	0.97910350887105
scalar Network.dyn_peer[260] 	lookupHopsSig:mean 	33.578947368421
scalar Network.dyn_peer[261] 	lookupTimeSig:mean 	2.8333333333333
scalar Network.dyn_peer[261] 	lookupStabilitySig:mean 	0.97161018047094
scalar Network.dyn_peer[261] 	lookupHopsSig:mean 	27.388888888889
scalar Network.dyn_peer[262] 	lookupTimeSig:mean 	2.652380952381
scalar Network.dyn_peer[262] 	lookupStabilitySig:mean 	0.97495105844878
scalar Network.dyn_peer[262] 	lookupHopsSig:mean 	25.571428571429
scalar Network.dyn_peer[263] 	lookupTimeSig:mean 	2.4833333333333
scalar Network.dyn_peer[263] 	lookupStabilitySig:mean 	0.9626746592791
scalar Network.dyn_peer[263] 	lookupHopsSig:mean 	23.888888888889
scalar Network.dyn_peer[264] 	lookupTimeSig:mean 	2.6272727272727
scalar Network.dyn_peer[264] 	lookupStabilitySig:mean 	0.95929545350373
scalar Network.dyn_peer[264] 	lookupHopsSig:mean 	25.363636363636
scalar Network.dyn_peer[265] 	lookupTimeSig:mean 	3.2294117647059
scalar Network.dyn_peer[265] 	lookupStabilitySig:mean 	0.95971465639441
scalar Network.dyn_peer[265] 	lookupHopsSig:mean 	31.352941176471
scalar Network.dyn_peer[266] 	lookupTimeSig:mean 	3.2
scalar Network.dyn_peer[266] 	lookupStabilitySig:mean 	0.96025467604133
scalar Network.dyn_peer[266] 	lookupHopsSig:mean 	31.071428571429
scalar Network.dyn_peer[267] 	lookupTimeSig:mean 	4.15
scalar Network.dyn_peer[267] 	lookupStabilitySig:mean 	0.96759277404371
scalar Network.dyn_peer[267] 	lookupHopsSig:mean 	40.545454545455
scalar Network.dyn_peer[268] 	lookupTimeSig:mean 	2.5809523809524
scalar Network.dyn_peer[268] 	lookupStabilitySig:mean 	0.97358961616244
scalar Network.dyn_peer[268] 	lookupHopsSig:mean 	24.857142857143
scalar Network.dyn_peer[269] 	lookupTimeSig:mean 	3.0391304347826
scalar Network.dyn_peer[269] 	lookupStabilitySig:mean 	0.97061941380936
scalar Network.dyn_peer[269] 	lookupHopsSig:mean 	29.434782608696
scalar Network.dyn_peer[270] 	lookupTimeSig:mean 	3.93125
scalar Network.dyn_peer[270] 	lookupStabilitySig:mean 	0.95501205002074
scalar Network.dyn_peer[270] 	lookupHopsSig:mean 	38.375
scalar Network.dyn_peer[271] 	lookupTimeSig:mean 	4
scalar Network.dyn_peer[271] 	lookupStabilitySig:mean 	0.97506564896105
scalar Network.dyn_peer[271] 	lookupHopsSig:mean 	39.037037037037
scalar Network.dyn_peer[272] 	lookupTimeSig:mean 	3.1
scalar Network.dyn_peer[272] 	lookupStabilitySig:mean 	0.97196839678738
scalar Network.dyn_peer[272] 	lookupHopsSig:mean 	30.052631578947
scalar Network.dyn_peer[273] 	lookupTimeSig:mean 	2.152380952381
scalar Network.dyn_peer[273] 	lookupStabilitySig:mean 	0.97222632983522
scalar Network.dyn_peer[273] 	lookupHopsSig:mean 	20.571428571429
scalar Network.dyn_peer[274] 	lookupTimeSig:mean 	3.71
scalar Network.dyn_peer[274] 	lookupStabilitySig:mean 	0.96915665408596
scalar Network.dyn_peer[274] 	lookupHopsSig:mean 	36.15
scalar Network.dyn_peer[275] 	lookupTimeSig:mean 	4.17
scalar Network.dyn_peer[275] 	lookupStabilitySig:mean 	0.9512554300949
scalar Network.dyn_peer[275] 	lookupHopsSig:mean 	40.8
scalar Network.dyn_peer[276] 	lookupTimeSig:mean 	3.8210526315789
scalar Network.dyn_peer[276] 	lookupStabilitySig:mean 	0.96582145117664
scalar Network.dyn_peer[276] 	lookupHopsSig:mean 	37.263157894737
scalar Network.dyn_peer[277] 	lookupTimeSig:mean 	2.5764705882353
scalar Network.dyn_peer[277] 	lookupStabilitySig:mean 	0.96772038576412
scalar Network.dyn_peer[277] 	lookupHopsSig:mean 	24.823529411765
scalar Network.dyn_peer[278] 	lookupTimeSig:mean 	3.1571428571429
scalar Network.dyn_peer[278] 	lookupStabilitySig:mean 	0.96596124468903
scalar Network.dyn_peer[278] 	lookupHopsSig:mean 	30.642857142857
scalar Network.dyn_peer[279] 	lookupTimeSig:mean 	5.0545454545455
scalar Network.dyn_peer[279] 	lookupStabilitySig:mean 	0.9519170301289
scalar Network.dyn_peer[279] 	lookupHopsSig:mean 	49.636363636364
scalar Network.dyn_peer[280] 	lookupTimeSig:mean 	3.62
scalar Network.dyn_peer[280] 	lookupStabilitySig:mean 	0.95674755750224
scalar Network.dyn_peer[280] 	lookupHopsSig:mean 	35.266666666667
scalar Network.dyn_peer[281] 	lookupTimeSig:mean 	3.1571428571429
scalar Network.dyn_peer[281] 	lookupStabilitySig:mean 	0.95943053076709
scalar Network.dyn_peer[281] 	lookupHopsSig:mean 	30.642857142857
scalar Network.dyn_peer[282] 	lookupTimeSig:mean 	2.465
scalar Network.dyn_peer[282] 	lookupStabilitySig:mean 	0.96834001166862
scalar Network.dyn_peer[282] 	lookupHopsSig:mean 	23.7
scalar Network.dyn_peer[283] 	lookupTimeSig:mean 	4.5
scalar Network.dyn_peer[283] 	lookupStabilitySig:mean 	0.97259464764806
scalar Network.dyn_peer[283] 	lookupHopsSig:mean 	44.04347826087
scalar Network.dyn_peer[284] 	lookupTimeSig:mean 	3.6733333333333
scalar Network.dyn_peer[284] 	lookupStabilitySig:mean 	0.97611989467405
scalar Network.dyn_peer[284] 	lookupHopsSig:mean 	35.766666666667
scalar Network.dyn_peer[285] 	lookupTimeSig:mean 	3.8125
scalar Network.dyn_peer[285] 	lookupStabilitySig:mean 	0.96849362264038
scalar Network.dyn_peer[285] 	lookupHopsSig:mean 	37.1875
scalar Network.dyn_peer[286] 	lookupTimeSig:mean 	3.7516129032258
scalar Network.dyn_peer[286] 	lookupStabilitySig:mean 	0.97552257200192
scalar Network.dyn_peer[286] 	lookupHopsSig:mean 	36.548387096774
scalar Network.dyn_peer[287] 	lookupTimeSig:mean 	3.215
scalar Network.dyn_peer[287] 	lookupStabilitySig:mean 	0.97450685544172
scalar Network.dyn_peer[287] 	lookupHopsSig:mean 	31.2
scalar Network.dyn_peer[288] 	lookupTimeSig:mean 	3.3666666666667
scalar Network.dyn_peer[288] 	lookupStabilitySig:mean 	0.88311652466655
scalar Network.dyn_peer[288] 	lookupHopsSig:mean 	33
scalar Network.dyn_peer[289] 	lookupTimeSig:mean 	2.5181818181818
scalar Network.dyn_peer[289] 	lookupStabilitySig:mean 	0.98097934565422
scalar Network.dyn_peer[289] 	lookupHopsSig:mean 	24.227272727273
scalar Network.dyn_peer[290] 	lookupTimeSig:mean 	4.425
scalar Network.dyn_peer[290] 	lookupStabilitySig:mean 	0.96937666248414
scalar Network.dyn_peer[290] 	lookupHopsSig:mean 	43.3125
scalar Network.dyn_peer[291] 	lookupTimeSig:mean 	3.58
scalar Network.dyn_peer[291] 	lookupStabilitySig:mean 	0.96007615861793
scalar Network.dyn_peer[291] 	lookupHopsSig:mean 	34.866666666667
scalar Network.dyn_peer[292] 	lookupTimeSig:mean 	3.408
scalar Network.dyn_peer[292] 	lookupStabilitySig:mean 	0.97809549662983
scalar Network.dyn_peer[292] 	lookupHopsSig:mean 	33.12
scalar Network.dyn_peer[293] 	lookupTimeSig:mean 	2.9928571428571
scalar Network.dyn_peer[293] 	lookupStabilitySig:mean 	0.97364224462945
scalar Network.dyn_peer[293] 	lookupHopsSig:mean 	28.964285714286
scalar Network.dyn_peer[294] 	lookupTimeSig:mean 	2.3416666666667
scalar Network.dyn_peer[294] 	lookupStabilitySig:mean 	0.96342059154995
scalar Network.dyn_peer[294] 	lookupHopsSig:mean 	22.5
scalar Network.dyn_peer[295] 	lookupTimeSig:mean 	2.3
scalar Network.dyn_peer[295] 	lookupStabilitySig:mean 	0.9764012374403
scalar Network.dyn_peer[295] 	lookupHopsSig:mean 	22.04
scalar Network.dyn_peer[296] 	lookupTimeSig:mean 	3.952
scalar Network.dyn_peer[296] 	lookupStabilitySig:mean 	0.97315806189552
scalar Network.dyn_peer[296] 	lookupHopsSig:mean 	38.56
scalar Network.dyn_peer[297] 	lookupTimeSig:mean 	4.032
scalar Network.dyn_peer[297] 	lookupStabilitySig:mean 	0.97525221432094
scalar Network.dyn_peer[297] 	lookupHopsSig:mean 	39.36
scalar Network.dyn_peer[298] 	lookupTimeSig:mean 	3.8851851851852
scalar Network.dyn_peer[298] 	lookupStabilitySig:mean 	0.97151396496877
scalar Network.dyn_peer[298] 	lookupHopsSig:mean 	37.888888888889
scalar Network.dyn_peer[299] 	lookupTimeSig:mean 	2.8969696969697
scalar Network.dyn_peer[299] 	lookupStabilitySig:mean 	0.97918512274434
scalar Network.dyn_peer[299] 	lookupHopsSig:mean 	28
scalar Network.dyn_peer[300] 	lookupTimeSig:mean 	3.2153846153846
scalar Network.dyn_peer[300] 	lookupStabilitySig:mean 	0.9736213839004
scalar Network.dyn_peer[300] 	lookupHopsSig:mean 	31.230769230769
scalar Network.dyn_peer[301] 	lookupTimeSig:mean 	3.8428571428571
scalar Network.dyn_peer[301] 	lookupStabilitySig:mean 	0.96412146588167
scalar Network.dyn_peer[301] 	lookupHopsSig:mean 	37.47619047619
scalar Network.dyn_peer[302] 	lookupTimeSig:mean 	3.3222222222222
scalar Network.dyn_peer[302] 	lookupStabilitySig:mean 	0.96897584347365
scalar Network.dyn_peer[302] 	lookupHopsSig:mean 	32.277777777778
scalar Network.dyn_peer[303] 	lookupTimeSig:mean 	4.69375
scalar Network.dyn_peer[303] 	lookupStabilitySig:mean 	0.96332542074379
scalar Network.dyn_peer[303] 	lookupHopsSig:mean 	46
scalar Network.dyn_peer[304] 	lookupTimeSig:mean 	3.9842105263158
scalar Network.dyn_peer[304] 	lookupStabilitySig:mean 	0.96888086324754
scalar Network.dyn_peer[304] 	lookupHopsSig:mean 	38.894736842105
scalar Network.dyn_peer[305] 	lookupTimeSig:mean 	2.704347826087
scalar Network.dyn_peer[305] 	lookupStabilitySig:mean 	0.96893172192833
scalar Network.dyn_peer[305] 	lookupHopsSig:mean 	26.086956521739
scalar Network.dyn_peer[306] 	lookupTimeSig:mean 	3.9176470588235
scalar Network.dyn_peer[306] 	lookupStabilitySig:mean 	0.97016561655876
scalar Network.dyn_peer[306] 	lookupHopsSig:mean 	38.235294117647
scalar Network.dyn_peer[307] 	lookupTimeSig:mean 	3.8681818181818
scalar Network.dyn_peer[307] 	lookupStabilitySig:mean 	0.96667373063974
scalar Network.dyn_peer[307] 	lookupHopsSig:mean 	37.727272727273
scalar Network.dyn_peer[308] 	lookupTimeSig:mean 	3.94375
scalar Network.dyn_peer[308] 	lookupStabilitySig:mean 	0.96130149683449
scalar Network.dyn_peer[308] 	lookupHopsSig:mean 	38.5
scalar Network.dyn_peer[309] 	lookupTimeSig:mean 	3.01875
scalar Network.dyn_peer[309] 	lookupStabilitySig:mean 	0.97183448425494
scalar Network.dyn_peer[309] 	lookupHopsSig:mean 	29.25
scalar Network.dyn_peer[310] 	lookupTimeSig:mean 	3.5681818181818
scalar Network.dyn_peer[310] 	lookupStabilitySig:mean 	0.97305369986729
scalar Network.dyn_peer[310] 	lookupHopsSig:mean 	34.727272727273
scalar Network.dyn_peer[311] 	lookupTimeSig:mean 	4.56
scalar Network.dyn_peer[311] 	lookupStabilitySig:mean 	0.96605509384535
scalar Network.dyn_peer[311] 	lookupHopsSig:mean 	44.65
scalar Network.dyn_peer[312] 	lookupTimeSig:mean 	2.1454545454545
scalar Network.dyn_peer[312] 	lookupStabilitySig:mean 	0.96850033458693
scalar Network.dyn_peer[312] 	lookupHopsSig:mean 	20.545454545455
scalar Network.dyn_peer[313] 	lookupTimeSig:mean 	3.1
scalar Network.dyn_peer[313] 	lookupStabilitySig:mean 	0.97304183513491
scalar Network.dyn_peer[313] 	lookupHopsSig:mean 	30.041666666667
scalar Network.dyn_peer[314] 	lookupTimeSig:mean 	3.9
scalar Network.dyn_peer[314] 	lookupStabilitySig:mean 	0.96400898578577
scalar Network.dyn_peer[314] 	lookupHopsSig:mean 	38.0625
scalar Network.dyn_peer[315] 	lookupTimeSig:mean 	3.4791666666667
scalar Network.dyn_peer[315] 	lookupStabilitySig:mean 	0.97110670564871
scalar Network.dyn_peer[315] 	lookupHopsSig:mean 	33.833333333333
scalar Network.dyn_peer[316] 	lookupTimeSig:mean 	2.15
scalar Network.dyn_peer[316] 	lookupStabilitySig:mean 	0.93886487768032
scalar Network.dyn_peer[316] 	lookupHopsSig:mean 	20.625
scalar Network.dyn_peer[317] 	lookupTimeSig:mean 	3.4117647058824
scalar Network.dyn_peer[317] 	lookupStabilitySig:mean 	0.96157876059057
scalar Network.dyn_peer[317] 	lookupHopsSig:mean 	33.176470588235
scalar Network.dyn_peer[318] 	lookupTimeSig:mean 	3.45
scalar Network.dyn_peer[318] 	lookupStabilitySig:mean 	0.95946872606874
scalar Network.dyn_peer[318] 	lookupHopsSig:mean 	33.571428571429
scalar Network.dyn_peer[319] 	lookupTimeSig:mean 	3.9416666666667
scalar Network.dyn_peer[319] 	lookupStabilitySig:mean 	0.97305655588085
scalar Network.dyn_peer[319] 	lookupHopsSig:mean 	38.458333333333
scalar Network.dyn_peer[320] 	lookupTimeSig:mean 	2.4266666666667
scalar Network.dyn_peer[320] 	lookupStabilitySig:mean 	0.97585703608735
scalar Network.dyn_peer[320] 	lookupHopsSig:mean 	23.3
scalar Network.dyn_peer[321] 	lookupTimeSig:mean 	3.0115384615385
scalar Network.dyn_peer[321] 	lookupStabilitySig:mean 	0.97502904775767
scalar Network.dyn_peer[321] 	lookupHopsSig:mean 	29.153846153846
scalar Network.dyn_peer[322] 	lookupTimeSig:mean 	2.1642857142857
scalar Network.dyn_peer[322] 	lookupStabilitySig:mean 	0.96293519237744
scalar Network.dyn_peer[322] 	lookupHopsSig:mean 	20.714285714286
scalar Network.dyn_peer[323] 	lookupTimeSig:mean 	4.6909090909091
scalar Network.dyn_peer[323] 	lookupStabilitySig:mean 	0.96859520002776
scalar Network.dyn_peer[323] 	lookupHopsSig:mean 	45.954545454545
scalar Network.dyn_peer[324] 	lookupTimeSig:mean 	4.5111111111111
scalar Network.dyn_peer[324] 	lookupStabilitySig:mean 	0.97379161735686
scalar Network.dyn_peer[324] 	lookupHopsSig:mean 	44.148148148148
scalar Network.dyn_peer[325] 	lookupTimeSig:mean 	2.4952380952381
scalar Network.dyn_peer[325] 	lookupStabilitySig:mean 	0.97577955681066
scalar Network.dyn_peer[325] 	lookupHopsSig:mean 	24
scalar Network.dyn_peer[326] 	lookupTimeSig:mean 	1.79375
scalar Network.dyn_peer[326] 	lookupStabilitySig:mean 	0.96943536846084
scalar Network.dyn_peer[326] 	lookupHopsSig:mean 	17
scalar Network.dyn_peer[327] 	lookupTimeSig:mean 	2.3961538461538
scalar Network.dyn_peer[327] 	lookupStabilitySig:mean 	0.97324244826674
scalar Network.dyn_peer[327] 	lookupHopsSig:mean 	23
scalar Network.dyn_peer[328] 	lookupTimeSig:mean 	3.81875
scalar Network.dyn_peer[328] 	lookupStabilitySig:mean 	0.9634149352205
scalar Network.dyn_peer[328] 	lookupHopsSig:mean 	37.25
scalar Network.dyn_peer[329] 	lookupTimeSig:mean 	3.6708333333333
scalar Network.dyn_peer[329] 	lookupStabilitySig:mean 	0.97500952210976
scalar Network.dyn_peer[329] 	lookupHopsSig:mean 	35.75
scalar Network.dyn_peer[330] 	lookupTimeSig:mean 	3.1157894736842
scalar Network.dyn_peer[330] 	lookupStabilitySig:mean 	0.97112249097738
scalar Network.dyn_peer[330] 	lookupHopsSig:mean 	30.210526315789
scalar Network.dyn_peer[331] 	lookupTimeSig:mean 	2.82
scalar Network.dyn_peer[331] 	lookupStabilitySig:mean 	0.97603703631903
scalar Network.dyn_peer[331] 	lookupHopsSig:mean 	27.25
scalar Network.dyn_peer[332] 	lookupTimeSig:mean 	2.7466666666667
scalar Network.dyn_peer[332] 	lookupStabilitySig:mean 	0.95861890887221
scalar Network.dyn_peer[332] 	lookupHopsSig:mean 	26.533333333333
scalar Network.dyn_peer[333] 	lookupTimeSig:mean 	4
scalar Network.dyn_peer[333] 	lookupStabilitySig:mean 	0.9749164997219
scalar Network.dyn_peer[333] 	lookupHopsSig:mean 	39.045454545455
scalar Network.dyn_peer[334] 	lookupTimeSig:mean 	4.025
scalar Network.dyn_peer[334] 	lookupStabilitySig:mean 	0.96303708318737
scalar Network.dyn_peer[334] 	lookupHopsSig:mean 	39.3125
scalar Network.dyn_peer[335] 	lookupTimeSig:mean 	2.2733333333333
scalar Network.dyn_peer[335] 	lookupStabilitySig:mean 	0.97031362131238
scalar Network.dyn_peer[335] 	lookupHopsSig:mean 	21.8
scalar Network.dyn_peer[336] 	lookupTimeSig:mean 	2.4176470588235
scalar Network.dyn_peer[336] 	lookupStabilitySig:mean 	0.96762272348518
scalar Network.dyn_peer[336] 	lookupHopsSig:mean 	23.235294117647
scalar Network.dyn_peer[337] 	lookupTimeSig:mean 	2.6217391304348
scalar Network.dyn_peer[337] 	lookupStabilitySig:mean 	0.97505954619619
scalar Network.dyn_peer[337] 	lookupHopsSig:mean 	25.260869565217
scalar Network.dyn_peer[338] 	lookupTimeSig:mean 	4.01
scalar Network.dyn_peer[338] 	lookupStabilitySig:mean 	0.97577711495105
scalar Network.dyn_peer[338] 	lookupHopsSig:mean 	39.15
scalar Network.dyn_peer[339] 	lookupTimeSig:mean 	3.564
scalar Network.dyn_peer[339] 	lookupStabilitySig:mean 	0.97399274181575
scalar Network.dyn_peer[339] 	lookupHopsSig:mean 	34.68
scalar Network.dyn_peer[340] 	lookupTimeSig:mean 	3.9
scalar Network.dyn_peer[340] 	lookupStabilitySig:mean 	0.97450137563768
scalar Network.dyn_peer[340] 	lookupHopsSig:mean 	38.041666666667
scalar Network.dyn_peer[341] 	lookupTimeSig:mean 	3.062962962963
scalar Network.dyn_peer[341] 	lookupStabilitySig:mean 	0.97586373971879
scalar Network.dyn_peer[341] 	lookupHopsSig:mean 	29.666666666667
scalar Network.dyn_peer[342] 	lookupTimeSig:mean 	4.5785714285714
scalar Network.dyn_peer[342] 	lookupStabilitySig:mean 	0.97242098654221
scalar Network.dyn_peer[342] 	lookupHopsSig:mean 	44.857142857143
scalar Network.dyn_peer[343] 	lookupTimeSig:mean 	3.4769230769231
scalar Network.dyn_peer[343] 	lookupStabilitySig:mean 	0.96404937836521
scalar Network.dyn_peer[343] 	lookupHopsSig:mean 	33.846153846154
scalar Network.dyn_peer[344] 	lookupTimeSig:mean 	3.2222222222222
scalar Network.dyn_peer[344] 	lookupStabilitySig:mean 	0.97415616872927
scalar Network.dyn_peer[344] 	lookupHopsSig:mean 	31.259259259259
scalar Network.dyn_peer[345] 	lookupTimeSig:mean 	3.315
scalar Network.dyn_peer[345] 	lookupStabilitySig:mean 	0.98003789057257
scalar Network.dyn_peer[345] 	lookupHopsSig:mean 	32.2
scalar Network.dyn_peer[346] 	lookupTimeSig:mean 	3.7210526315789
scalar Network.dyn_peer[346] 	lookupStabilitySig:mean 	0.97218252890621
scalar Network.dyn_peer[346] 	lookupHopsSig:mean 	36.263157894737
scalar Network.dyn_peer[347] 	lookupTimeSig:mean 	2.7851851851852
scalar Network.dyn_peer[347] 	lookupStabilitySig:mean 	0.98093369464321
scalar Network.dyn_peer[347] 	lookupHopsSig:mean 	26.888888888889
scalar Network.dyn_peer[348] 	lookupTimeSig:mean 	3.3615384615385
scalar Network.dyn_peer[348] 	lookupStabilitySig:mean 	0.95968056208669
scalar Network.dyn_peer[348] 	lookupHopsSig:mean 	32.692307692308
scalar Network.dyn_peer[349] 	lookupTimeSig:mean 	4.0962962962963
scalar Network.dyn_peer[349] 	lookupStabilitySig:mean 	0.97688342417866
scalar Network.dyn_peer[349] 	lookupHopsSig:mean 	40
scalar Network.dyn_peer[350] 	lookupTimeSig:mean 	3.9764705882353
scalar Network.dyn_peer[350] 	lookupStabilitySig:mean 	0.96391297767268
scalar Network.dyn_peer[350] 	lookupHopsSig:mean 	38.823529411765
scalar Network.dyn_peer[351] 	lookupTimeSig:mean 	3.8263157894737
scalar Network.dyn_peer[351] 	lookupStabilitySig:mean 	0.97133436020292
scalar Network.dyn_peer[351] 	lookupHopsSig:mean 	37.315789473684
scalar Network.dyn_peer[352] 	lookupTimeSig:mean 	1.38
scalar Network.dyn_peer[352] 	lookupStabilitySig:mean 	0.93647739477456
scalar Network.dyn_peer[352] 	lookupHopsSig:mean 	13
scalar Network.dyn_peer[353] 	lookupTimeSig:mean 	3.368
scalar Network.dyn_peer[353] 	lookupStabilitySig:mean 	0.97929740433581
scalar Network.dyn_peer[353] 	lookupHopsSig:mean 	32.72
scalar Network.dyn_peer[354] 	lookupTimeSig:mean 	3.29375
scalar Network.dyn_peer[354] 	lookupStabilitySig:mean 	0.9694453823322
scalar Network.dyn_peer[354] 	lookupHopsSig:mean 	32
scalar Network.dyn_peer[355] 	lookupTimeSig:mean 	3.44
scalar Network.dyn_peer[355] 	lookupStabilitySig:mean 	0.97550177886151
scalar Network.dyn_peer[355] 	lookupHopsSig:mean 	33.45
scalar Network.dyn_peer[356] 	lookupTimeSig:mean 	3.5076923076923
scalar Network.dyn_peer[356] 	lookupStabilitySig:mean 	0.95616510173736
scalar Network.dyn_peer[356] 	lookupHopsSig:mean 	34.153846153846
scalar Network.dyn_peer[357] 	lookupTimeSig:mean 	4.1785714285714
scalar Network.dyn_peer[357] 	lookupStabilitySig:mean 	0.97531205068143
scalar Network.dyn_peer[357] 	lookupHopsSig:mean 	40.821428571429
scalar Network.dyn_peer[358] 	lookupTimeSig:mean 	3.7217391304348
scalar Network.dyn_peer[358] 	lookupStabilitySig:mean 	0.97846367408562
scalar Network.dyn_peer[358] 	lookupHopsSig:mean 	36.260869565217
scalar Network.dyn_peer[359] 	lookupTimeSig:mean 	4.1285714285714
scalar Network.dyn_peer[359] 	lookupStabilitySig:mean 	0.97414248797023
scalar Network.dyn_peer[359] 	lookupHopsSig:mean 	40.333333333333
scalar Network.dyn_peer[360] 	lookupTimeSig:mean 	2.6941176470588
scalar Network.dyn_peer[360] 	lookupStabilitySig:mean 	0.97174278296777
scalar Network.dyn_peer[360] 	lookupHopsSig:mean 	26
scalar Network.dyn_peer[361] 	lookupTimeSig:mean 	3.125
scalar Network.dyn_peer[361] 	lookupStabilitySig:mean 	0.97429620169957
scalar Network.dyn_peer[361] 	lookupHopsSig:mean 	30.333333333333
scalar Network.dyn_peer[362] 	lookupTimeSig:mean 	3.4058823529412
scalar Network.dyn_peer[362] 	lookupStabilitySig:mean 	0.97789219618255
scalar Network.dyn_peer[362] 	lookupHopsSig:mean 	33.117647058824
scalar Network.dyn_peer[363] 	lookupTimeSig:mean 	2.2615384615385
scalar Network.dyn_peer[363] 	lookupStabilitySig:mean 	0.96201284156324
scalar Network.dyn_peer[363] 	lookupHopsSig:mean 	21.692307692308
scalar Network.dyn_peer[364] 	lookupTimeSig:mean 	1.975
scalar Network.dyn_peer[364] 	lookupStabilitySig:mean 	0.98099252645625
scalar Network.dyn_peer[364] 	lookupHopsSig:mean 	18.875
scalar Network.dyn_peer[365] 	lookupTimeSig:mean 	3.8928571428571
scalar Network.dyn_peer[365] 	lookupStabilitySig:mean 	0.96074805036187
scalar Network.dyn_peer[365] 	lookupHopsSig:mean 	38
scalar Network.dyn_peer[366] 	lookupTimeSig:mean 	3.436
scalar Network.dyn_peer[366] 	lookupStabilitySig:mean 	0.97466116305441
scalar Network.dyn_peer[366] 	lookupHopsSig:mean 	33.4
scalar Network.dyn_peer[367] 	lookupTimeSig:mean 	2.8238095238095
scalar Network.dyn_peer[367] 	lookupStabilitySig:mean 	0.97242348864009
scalar Network.dyn_peer[367] 	lookupHopsSig:mean 	27.285714285714
scalar Network.dyn_peer[368] 	lookupTimeSig:mean 	2.74
scalar Network.dyn_peer[368] 	lookupStabilitySig:mean 	0.93147622747347
scalar Network.dyn_peer[368] 	lookupHopsSig:mean 	26.6
scalar Network.dyn_peer[369] 	lookupTimeSig:mean 	3.9761904761905
scalar Network.dyn_peer[369] 	lookupStabilitySig:mean 	0.97377663195948
scalar Network.dyn_peer[369] 	lookupHopsSig:mean 	38.809523809524
scalar Network.dyn_peer[370] 	lookupTimeSig:mean 	2.8941176470588
scalar Network.dyn_peer[370] 	lookupStabilitySig:mean 	0.97448444559568
scalar Network.dyn_peer[370] 	lookupHopsSig:mean 	28
scalar Network.dyn_peer[371] 	lookupTimeSig:mean 	3.955
scalar Network.dyn_peer[371] 	lookupStabilitySig:mean 	0.97421110277064
scalar Network.dyn_peer[371] 	lookupHopsSig:mean 	38.6
scalar Network.dyn_peer[372] 	lookupTimeSig:mean 	2.0285714285714
scalar Network.dyn_peer[372] 	lookupStabilitySig:mean 	0.96925828422952
scalar Network.dyn_peer[372] 	lookupHopsSig:mean 	19.357142857143
scalar Network.dyn_peer[373] 	lookupTimeSig:mean 	4.3892857142857
scalar Network.dyn_peer[373] 	lookupStabilitySig:mean 	0.97662536268971
scalar Network.dyn_peer[373] 	lookupHopsSig:mean 	42.928571428571
scalar Network.dyn_peer[374] 	lookupTimeSig:mean 	3.2608695652174
scalar Network.dyn_peer[374] 	lookupStabilitySig:mean 	0.9749203412996
scalar Network.dyn_peer[374] 	lookupHopsSig:mean 	31.652173913043
scalar Network.dyn_peer[375] 	lookupTimeSig:mean 	3.1333333333333
scalar Network.dyn_peer[375] 	lookupStabilitySig:mean 	0.97852777897626
scalar Network.dyn_peer[375] 	lookupHopsSig:mean 	30.388888888889
scalar Network.dyn_peer[376] 	lookupTimeSig:mean 	2.925
scalar Network.dyn_peer[376] 	lookupStabilitySig:mean 	0.96159046224784
scalar Network.dyn_peer[376] 	lookupHopsSig:mean 	28.333333333333
scalar Network.dyn_peer[377] 	lookupTimeSig:mean 	2.8652173913043
scalar Network.dyn_peer[377] 	lookupStabilitySig:mean 	0.97262742690256
scalar Network.dyn_peer[377] 	lookupHopsSig:mean 	27.695652173913
scalar Network.dyn_peer[378] 	lookupTimeSig:mean 	3.6884615384615
scalar Network.dyn_peer[378] 	lookupStabilitySig:mean 	0.97628069136184
scalar Network.dyn_peer[378] 	lookupHopsSig:mean 	35.923076923077
scalar Network.dyn_peer[379] 	lookupTimeSig:mean 	4.2166666666667
scalar Network.dyn_peer[379] 	lookupStabilitySig:mean 	0.9568614748617
scalar Network.dyn_peer[379] 	lookupHopsSig:mean 	41.333333333333
scalar Network.dyn_peer[380] 	lookupTimeSig:mean 	3.535
scalar Network.dyn_peer[380] 	lookupStabilitySig:mean 	0.97279150888789
scalar Network.dyn_peer[380] 	lookupHopsSig:mean 	34.4
scalar Network.dyn_peer[381] 	lookupTimeSig:mean 	2.3375
scalar Network.dyn_peer[381] 	lookupStabilitySig:mean 	0.95429631520528
scalar Network.dyn_peer[381] 	lookupHopsSig:mean 	22.5
scalar Network.dyn_peer[382] 	lookupTimeSig:mean 	3.8409090909091
scalar Network.dyn_peer[382] 	lookupStabilitySig:mean 	0.98133145162402
scalar Network.dyn_peer[382] 	lookupHopsSig:mean 	37.454545454545
scalar Network.dyn_peer[383] 	lookupTimeSig:mean 	3.3904761904762
scalar Network.dyn_peer[383] 	lookupStabilitySig:mean 	0.97957587522632
scalar Network.dyn_peer[383] 	lookupHopsSig:mean 	32.952380952381
scalar Network.dyn_peer[384] 	lookupTimeSig:mean 	3.475
scalar Network.dyn_peer[384] 	lookupStabilitySig:mean 	0.9651113665459
scalar Network.dyn_peer[384] 	lookupHopsSig:mean 	33.8125
scalar Network.dyn_peer[385] 	lookupTimeSig:mean 	3.0888888888889
scalar Network.dyn_peer[385] 	lookupStabilitySig:mean 	0.970198789702
scalar Network.dyn_peer[385] 	lookupHopsSig:mean 	29.944444444444
scalar Network.dyn_peer[386] 	lookupTimeSig:mean 	3.4952380952381
scalar Network.dyn_peer[386] 	lookupStabilitySig:mean 	0.97339436255251
scalar Network.dyn_peer[386] 	lookupHopsSig:mean 	34
scalar Network.dyn_peer[387] 	lookupTimeSig:mean 	4.0642857142857
scalar Network.dyn_peer[387] 	lookupStabilitySig:mean 	0.96822029651542
scalar Network.dyn_peer[387] 	lookupHopsSig:mean 	39.714285714286
scalar Network.dyn_peer[388] 	lookupTimeSig:mean 	3.9291666666667
scalar Network.dyn_peer[388] 	lookupStabilitySig:mean 	0.97941766153478
scalar Network.dyn_peer[388] 	lookupHopsSig:mean 	38.333333333333
scalar Network.dyn_peer[389] 	lookupTimeSig:mean 	2.5363636363636
scalar Network.dyn_peer[389] 	lookupStabilitySig:mean 	0.97739202413835
scalar Network.dyn_peer[389] 	lookupHopsSig:mean 	24.409090909091
scalar Network.dyn_peer[390] 	lookupTimeSig:mean 	2.66875
scalar Network.dyn_peer[390] 	lookupStabilitySig:mean 	0.9687184129034
scalar Network.dyn_peer[390] 	lookupHopsSig:mean 	25.75
scalar Network.dyn_peer[391] 	lookupTimeSig:mean 	3.1428571428571
scalar Network.dyn_peer[391] 	lookupStabilitySig:mean 	0.96934704667711
scalar Network.dyn_peer[391] 	lookupHopsSig:mean 	30.47619047619
scalar Network.dyn_peer[392] 	lookupTimeSig:mean 	3.9133333333333
scalar Network.dyn_peer[392] 	lookupStabilitySig:mean 	0.97360921446234
scalar Network.dyn_peer[392] 	lookupHopsSig:mean 	38.2
scalar Network.dyn_peer[393] 	lookupTimeSig:mean 	3.5
scalar Network.dyn_peer[393] 	lookupStabilitySig:mean 	0.97587081243266
scalar Network.dyn_peer[393] 	lookupHopsSig:mean 	34.038461538462
scalar Network.dyn_peer[394] 	lookupTimeSig:mean 	3.5538461538462
scalar Network.dyn_peer[394] 	lookupStabilitySig:mean 	0.96283986804505
scalar Network.dyn_peer[394] 	lookupHopsSig:mean 	34.615384615385
scalar Network.dyn_peer[395] 	lookupTimeSig:mean 	3.6620689655172
scalar Network.dyn_peer[395] 	lookupStabilitySig:mean 	0.97902225014946
scalar Network.dyn_peer[395] 	lookupHopsSig:mean 	35.655172413793
scalar Network.dyn_peer[396] 	lookupTimeSig:mean 	2.604347826087
scalar Network.dyn_peer[396] 	lookupStabilitySig:mean 	0.97602598903114
scalar Network.dyn_peer[396] 	lookupHopsSig:mean 	25.086956521739
scalar Network.dyn_peer[397] 	lookupTimeSig:mean 	3.475
scalar Network.dyn_peer[397] 	lookupStabilitySig:mean 	0.97638854093384
scalar Network.dyn_peer[397] 	lookupHopsSig:mean 	33.8125
scalar Network.dyn_peer[398] 	lookupTimeSig:mean 	3.4052631578947
scalar Network.dyn_peer[398] 	lookupStabilitySig:mean 	0.97215736679439
scalar Network.dyn_peer[398] 	lookupHopsSig:mean 	33.105263157895
scalar Network.dyn_peer[399] 	lookupTimeSig:mean 	3.7913043478261
scalar Network.dyn_peer[399] 	lookupStabilitySig:mean 	0.97646506939276
scalar Network.dyn_peer[399] 	lookupHopsSig:mean 	36.95652173913
scalar Network.dyn_peer[400] 	lookupTimeSig:mean 	4.3611111111111
scalar Network.dyn_peer[400] 	lookupStabilitySig:mean 	0.97029625125126
scalar Network.dyn_peer[400] 	lookupHopsSig:mean 	42.666666666667
scalar Network.dyn_peer[401] 	lookupTimeSig:mean 	3.1
scalar Network.dyn_peer[401] 	lookupStabilitySig:mean 	0.97854952974594
scalar Network.dyn_peer[401] 	lookupHopsSig:mean 	30.05
scalar Network.dyn_peer[402] 	lookupTimeSig:mean 	3.3
scalar Network.dyn_peer[402] 	lookupStabilitySig:mean 	0.97066727096681
scalar Network.dyn_peer[402] 	lookupHopsSig:mean 	32.05
scalar Network.dyn_peer[403] 	lookupTimeSig:mean 	3.0866666666667
scalar Network.dyn_peer[403] 	lookupStabilitySig:mean 	0.96580498316325
scalar Network.dyn_peer[403] 	lookupHopsSig:mean 	29.933333333333
scalar Network.dyn_peer[404] 	lookupTimeSig:mean 	1.2714285714286
scalar Network.dyn_peer[404] 	lookupStabilitySig:mean 	0.95767855231783
scalar Network.dyn_peer[404] 	lookupHopsSig:mean 	11.857142857143
scalar Network.dyn_peer[405] 	lookupTimeSig:mean 	4.1294117647059
[...]
scalar Network.dyn_peer[9898] 	lookupHopsSig:mean 	45.125
scalar Network.dyn_peer[9899] 	lookupTimeSig:mean 	6.25
scalar Network.dyn_peer[9899] 	lookupStabilitySig:mean 	0.9926898588019
scalar Network.dyn_peer[9899] 	lookupHopsSig:mean 	61.625
scalar Network.dyn_peer[9900] 	lookupTimeSig:mean 	4.8714285714286
scalar Network.dyn_peer[9900] 	lookupStabilitySig:mean 	0.99452158915145
scalar Network.dyn_peer[9900] 	lookupHopsSig:mean 	47.785714285714
scalar Network.dyn_peer[9901] 	lookupTimeSig:mean 	3.9
scalar Network.dyn_peer[9901] 	lookupStabilitySig:mean 	0.9950232738629
scalar Network.dyn_peer[9901] 	lookupHopsSig:mean 	38.142857142857
scalar Network.dyn_peer[9902] 	lookupTimeSig:mean 	3.8
scalar Network.dyn_peer[9902] 	lookupStabilitySig:mean 	0.99467041908065
scalar Network.dyn_peer[9902] 	lookupHopsSig:mean 	37.5
scalar Network.dyn_peer[9903] 	lookupTimeSig:mean 	4.84
scalar Network.dyn_peer[9903] 	lookupStabilitySig:mean 	0.99373978194781
scalar Network.dyn_peer[9903] 	lookupHopsSig:mean 	47.6
scalar Network.dyn_peer[9904] 	lookupTimeSig:mean 	6.8333333333333
scalar Network.dyn_peer[9904] 	lookupStabilitySig:mean 	0.99103248879934
scalar Network.dyn_peer[9904] 	lookupHopsSig:mean 	67.666666666667
scalar Network.dyn_peer[9905] 	lookupTimeSig:mean 	3.6571428571429
scalar Network.dyn_peer[9905] 	lookupStabilitySig:mean 	0.99574746701234
scalar Network.dyn_peer[9905] 	lookupHopsSig:mean 	35.642857142857
scalar Network.dyn_peer[9906] 	lookupTimeSig:mean 	4.2555555555556
scalar Network.dyn_peer[9906] 	lookupStabilitySig:mean 	0.99483884662752
scalar Network.dyn_peer[9906] 	lookupHopsSig:mean 	41.666666666667
scalar Network.dyn_peer[9907] 	lookupTimeSig:mean 	3.1
scalar Network.dyn_peer[9907] 	lookupStabilitySig:mean 	0.99589174465897
scalar Network.dyn_peer[9907] 	lookupHopsSig:mean 	30.166666666667
scalar Network.dyn_peer[9908] 	lookupTimeSig:mean 	5.3583333333333
scalar Network.dyn_peer[9908] 	lookupStabilitySig:mean 	0.99392967678917
scalar Network.dyn_peer[9908] 	lookupHopsSig:mean 	52.666666666667
scalar Network.dyn_peer[9909] 	lookupTimeSig:mean 	6.4571428571429
scalar Network.dyn_peer[9909] 	lookupStabilitySig:mean 	0.99243016388001
scalar Network.dyn_peer[9909] 	lookupHopsSig:mean 	63.714285714286
scalar Network.dyn_peer[9910] 	lookupTimeSig:mean 	4.7571428571429
scalar Network.dyn_peer[9910] 	lookupStabilitySig:mean 	0.99408671595821
scalar Network.dyn_peer[9910] 	lookupHopsSig:mean 	46.714285714286
scalar Network.dyn_peer[9911] 	lookupTimeSig:mean 	3
scalar Network.dyn_peer[9911] 	lookupStabilitySig:mean 	0.99596556199249
scalar Network.dyn_peer[9911] 	lookupHopsSig:mean 	29.2
scalar Network.dyn_peer[9912] 	lookupTimeSig:mean 	4.7
scalar Network.dyn_peer[9912] 	lookupStabilitySig:mean 	0.99404157605022
scalar Network.dyn_peer[9912] 	lookupHopsSig:mean 	46.166666666667
scalar Network.dyn_peer[9913] 	lookupTimeSig:mean 	6.02
scalar Network.dyn_peer[9913] 	lookupStabilitySig:mean 	0.99317097391468
scalar Network.dyn_peer[9913] 	lookupHopsSig:mean 	59.3
scalar Network.dyn_peer[9914] 	lookupTimeSig:mean 	5.9285714285714
scalar Network.dyn_peer[9914] 	lookupStabilitySig:mean 	0.99293116104257
scalar Network.dyn_peer[9914] 	lookupHopsSig:mean 	58.428571428571
scalar Network.dyn_peer[9915] 	lookupTimeSig:mean 	5.7
scalar Network.dyn_peer[9915] 	lookupStabilitySig:mean 	0.99309467677293
scalar Network.dyn_peer[9915] 	lookupHopsSig:mean 	56.142857142857
scalar Network.dyn_peer[9916] 	lookupTimeSig:mean 	4.66
scalar Network.dyn_peer[9916] 	lookupStabilitySig:mean 	0.99398934138007
scalar Network.dyn_peer[9916] 	lookupHopsSig:mean 	45.8
scalar Network.dyn_peer[9917] 	lookupTimeSig:mean 	4.2153846153846
scalar Network.dyn_peer[9917] 	lookupStabilitySig:mean 	0.99514634643072
scalar Network.dyn_peer[9917] 	lookupHopsSig:mean 	41.230769230769
scalar Network.dyn_peer[9918] 	lookupTimeSig:mean 	6.5714285714286
scalar Network.dyn_peer[9918] 	lookupStabilitySig:mean 	0.99227122930876
scalar Network.dyn_peer[9918] 	lookupHopsSig:mean 	64.857142857143
scalar Network.dyn_peer[9919] 	lookupTimeSig:mean 	5.1666666666667
scalar Network.dyn_peer[9919] 	lookupStabilitySig:mean 	0.99395520516878
scalar Network.dyn_peer[9919] 	lookupHopsSig:mean 	50.777777777778
scalar Network.dyn_peer[9920] 	lookupTimeSig:mean 	4.1857142857143
scalar Network.dyn_peer[9920] 	lookupStabilitySig:mean 	0.99471856264531
scalar Network.dyn_peer[9920] 	lookupHopsSig:mean 	41
scalar Network.dyn_peer[9921] 	lookupTimeSig:mean 	4.8454545454545
scalar Network.dyn_peer[9921] 	lookupStabilitySig:mean 	0.99440903054677
scalar Network.dyn_peer[9921] 	lookupHopsSig:mean 	47.545454545455
scalar Network.dyn_peer[9922] 	lookupTimeSig:mean 	5.58125
scalar Network.dyn_peer[9922] 	lookupStabilitySig:mean 	0.99392191339575
scalar Network.dyn_peer[9922] 	lookupHopsSig:mean 	54.875
scalar Network.dyn_peer[9923] 	lookupTimeSig:mean 	4.675
scalar Network.dyn_peer[9923] 	lookupStabilitySig:mean 	0.99430056364508
scalar Network.dyn_peer[9923] 	lookupHopsSig:mean 	45.875
scalar Network.dyn_peer[9924] 	lookupTimeSig:mean 	4.7727272727273
scalar Network.dyn_peer[9924] 	lookupStabilitySig:mean 	0.99445570268753
scalar Network.dyn_peer[9924] 	lookupHopsSig:mean 	46.818181818182
scalar Network.dyn_peer[9925] 	lookupTimeSig:mean 	3.9714285714286
scalar Network.dyn_peer[9925] 	lookupStabilitySig:mean 	0.99545088897035
scalar Network.dyn_peer[9925] 	lookupHopsSig:mean 	38.785714285714
scalar Network.dyn_peer[9926] 	lookupTimeSig:mean 	5.92
scalar Network.dyn_peer[9926] 	lookupStabilitySig:mean 	0.99259502856294
scalar Network.dyn_peer[9926] 	lookupHopsSig:mean 	58.4
scalar Network.dyn_peer[9927] 	lookupTimeSig:mean 	5.9
scalar Network.dyn_peer[9927] 	lookupStabilitySig:mean 	0.99190693395212
scalar Network.dyn_peer[9927] 	lookupHopsSig:mean 	58.5
scalar Network.dyn_peer[9928] 	lookupTimeSig:mean 	7.4
scalar Network.dyn_peer[9928] 	lookupStabilitySig:mean 	0.99072547000833
scalar Network.dyn_peer[9928] 	lookupHopsSig:mean 	73.25
scalar Network.dyn_peer[9929] 	lookupTimeSig:mean 	3.6454545454545
scalar Network.dyn_peer[9929] 	lookupStabilitySig:mean 	0.99560301230204
scalar Network.dyn_peer[9929] 	lookupHopsSig:mean 	35.545454545455
scalar Network.dyn_peer[9930] 	lookupTimeSig:mean 	4
scalar Network.dyn_peer[9930] 	lookupStabilitySig:mean 	0.99491983479155
scalar Network.dyn_peer[9930] 	lookupHopsSig:mean 	39.142857142857
scalar Network.dyn_peer[9931] 	lookupTimeSig:mean 	5.2583333333333
scalar Network.dyn_peer[9931] 	lookupStabilitySig:mean 	0.99404083036158
scalar Network.dyn_peer[9931] 	lookupHopsSig:mean 	51.666666666667
scalar Network.dyn_peer[9932] 	lookupTimeSig:mean 	4.87
scalar Network.dyn_peer[9932] 	lookupStabilitySig:mean 	0.99428407362429
scalar Network.dyn_peer[9932] 	lookupHopsSig:mean 	47.8
scalar Network.dyn_peer[9933] 	lookupTimeSig:mean 	6.05
scalar Network.dyn_peer[9933] 	lookupStabilitySig:mean 	0.99219328304753
scalar Network.dyn_peer[9933] 	lookupHopsSig:mean 	59.75
scalar Network.dyn_peer[9934] 	lookupTimeSig:mean 	4.91
scalar Network.dyn_peer[9934] 	lookupStabilitySig:mean 	0.99424738917733
scalar Network.dyn_peer[9934] 	lookupHopsSig:mean 	48.2
scalar Network.dyn_peer[9935] 	lookupTimeSig:mean 	5.43
scalar Network.dyn_peer[9935] 	lookupStabilitySig:mean 	0.99373097776552
scalar Network.dyn_peer[9935] 	lookupHopsSig:mean 	53.4
scalar Network.dyn_peer[9936] 	lookupTimeSig:mean 	3.63
scalar Network.dyn_peer[9936] 	lookupStabilitySig:mean 	0.99557870618883
scalar Network.dyn_peer[9936] 	lookupHopsSig:mean 	35.4
scalar Network.dyn_peer[9937] 	lookupTimeSig:mean 	8.2428571428571
scalar Network.dyn_peer[9937] 	lookupStabilitySig:mean 	0.99061482945191
scalar Network.dyn_peer[9937] 	lookupHopsSig:mean 	81.571428571429
scalar Network.dyn_peer[9938] 	lookupTimeSig:mean 	5.1
scalar Network.dyn_peer[9938] 	lookupStabilitySig:mean 	0.99393058149144
scalar Network.dyn_peer[9938] 	lookupHopsSig:mean 	50.125
scalar Network.dyn_peer[9939] 	lookupTimeSig:mean 	5.7285714285714
scalar Network.dyn_peer[9939] 	lookupStabilitySig:mean 	0.99311141945821
scalar Network.dyn_peer[9939] 	lookupHopsSig:mean 	56.428571428571
scalar Network.dyn_peer[9940] 	lookupTimeSig:mean 	6.05
scalar Network.dyn_peer[9940] 	lookupStabilitySig:mean 	0.9926207200236
scalar Network.dyn_peer[9940] 	lookupHopsSig:mean 	59.666666666667
scalar Network.dyn_peer[9941] 	lookupTimeSig:mean 	6.275
scalar Network.dyn_peer[9941] 	lookupStabilitySig:mean 	0.99197135883151
scalar Network.dyn_peer[9941] 	lookupHopsSig:mean 	62
scalar Network.dyn_peer[9942] 	lookupTimeSig:mean 	3.55
scalar Network.dyn_peer[9942] 	lookupStabilitySig:mean 	0.99565856208792
scalar Network.dyn_peer[9942] 	lookupHopsSig:mean 	34.6
scalar Network.dyn_peer[9943] 	lookupTimeSig:mean 	6.575
scalar Network.dyn_peer[9943] 	lookupStabilitySig:mean 	0.99167408107314
scalar Network.dyn_peer[9943] 	lookupHopsSig:mean 	65
scalar Network.dyn_peer[9944] 	lookupTimeSig:mean 	5.2571428571429
scalar Network.dyn_peer[9944] 	lookupStabilitySig:mean 	0.99358565533268
scalar Network.dyn_peer[9944] 	lookupHopsSig:mean 	51.714285714286
scalar Network.dyn_peer[9945] 	lookupTimeSig:mean 	5.4428571428571
scalar Network.dyn_peer[9945] 	lookupStabilitySig:mean 	0.99339059361124
scalar Network.dyn_peer[9945] 	lookupHopsSig:mean 	53.571428571429
scalar Network.dyn_peer[9946] 	lookupTimeSig:mean 	7.175
scalar Network.dyn_peer[9946] 	lookupStabilitySig:mean 	0.99111596366856
scalar Network.dyn_peer[9946] 	lookupHopsSig:mean 	71
scalar Network.dyn_peer[9947] 	lookupTimeSig:mean 	5.6
scalar Network.dyn_peer[9947] 	lookupStabilitySig:mean 	0.99346401128504
scalar Network.dyn_peer[9947] 	lookupHopsSig:mean 	55.111111111111
scalar Network.dyn_peer[9948] 	lookupTimeSig:mean 	6.4714285714286
scalar Network.dyn_peer[9948] 	lookupStabilitySig:mean 	0.99232772338603
scalar Network.dyn_peer[9948] 	lookupHopsSig:mean 	63.857142857143
scalar Network.dyn_peer[9949] 	lookupTimeSig:mean 	5.4285714285714
scalar Network.dyn_peer[9949] 	lookupStabilitySig:mean 	0.99340680797052
scalar Network.dyn_peer[9949] 	lookupHopsSig:mean 	53.428571428571
scalar Network.dyn_peer[9950] 	lookupTimeSig:mean 	4.3090909090909
scalar Network.dyn_peer[9950] 	lookupStabilitySig:mean 	0.99493012983691
scalar Network.dyn_peer[9950] 	lookupHopsSig:mean 	42.181818181818
scalar Network.dyn_peer[9951] 	lookupTimeSig:mean 	6.3090909090909
scalar Network.dyn_peer[9951] 	lookupStabilitySig:mean 	0.99296396713577
scalar Network.dyn_peer[9951] 	lookupHopsSig:mean 	62.181818181818
scalar Network.dyn_peer[9952] 	lookupTimeSig:mean 	3.625
scalar Network.dyn_peer[9952] 	lookupStabilitySig:mean 	0.99513488664525
scalar Network.dyn_peer[9952] 	lookupHopsSig:mean 	35.5
scalar Network.dyn_peer[9953] 	lookupTimeSig:mean 	5.0285714285714
scalar Network.dyn_peer[9953] 	lookupStabilitySig:mean 	0.9938312580676
scalar Network.dyn_peer[9953] 	lookupHopsSig:mean 	49.428571428571
scalar Network.dyn_peer[9954] 	lookupTimeSig:mean 	4.15
scalar Network.dyn_peer[9954] 	lookupStabilitySig:mean 	0.99489813872788
scalar Network.dyn_peer[9954] 	lookupHopsSig:mean 	40.625
scalar Network.dyn_peer[9955] 	lookupTimeSig:mean 	4.0384615384615
scalar Network.dyn_peer[9955] 	lookupStabilitySig:mean 	0.99532708321483
scalar Network.dyn_peer[9955] 	lookupHopsSig:mean 	39.461538461538
scalar Network.dyn_peer[9956] 	lookupTimeSig:mean 	4.6166666666667
scalar Network.dyn_peer[9956] 	lookupStabilitySig:mean 	0.99470862860714
scalar Network.dyn_peer[9956] 	lookupHopsSig:mean 	45.25
scalar Network.dyn_peer[9957] 	lookupTimeSig:mean 	4.3142857142857
scalar Network.dyn_peer[9957] 	lookupStabilitySig:mean 	0.99461381932321
scalar Network.dyn_peer[9957] 	lookupHopsSig:mean 	42.285714285714
scalar Network.dyn_peer[9958] 	lookupTimeSig:mean 	4.3
scalar Network.dyn_peer[9958] 	lookupStabilitySig:mean 	0.99461873534269
scalar Network.dyn_peer[9958] 	lookupHopsSig:mean 	42.142857142857
scalar Network.dyn_peer[9959] 	lookupTimeSig:mean 	6.425
scalar Network.dyn_peer[9959] 	lookupStabilitySig:mean 	0.9918576204218
scalar Network.dyn_peer[9959] 	lookupHopsSig:mean 	63.5
scalar Network.dyn_peer[9960] 	lookupTimeSig:mean 	4.0666666666667
scalar Network.dyn_peer[9960] 	lookupStabilitySig:mean 	0.99505908324176
scalar Network.dyn_peer[9960] 	lookupHopsSig:mean 	39.777777777778
scalar Network.dyn_peer[9961] 	lookupTimeSig:mean 	5.8285714285714
scalar Network.dyn_peer[9961] 	lookupStabilitySig:mean 	0.99373614954987
scalar Network.dyn_peer[9961] 	lookupHopsSig:mean 	57.357142857143
scalar Network.dyn_peer[9962] 	lookupTimeSig:mean 	5.5571428571429
scalar Network.dyn_peer[9962] 	lookupStabilitySig:mean 	0.99334523168259
scalar Network.dyn_peer[9962] 	lookupHopsSig:mean 	54.714285714286
scalar Network.dyn_peer[9963] 	lookupTimeSig:mean 	4.7375
scalar Network.dyn_peer[9963] 	lookupStabilitySig:mean 	0.9948207931302
scalar Network.dyn_peer[9963] 	lookupHopsSig:mean 	46.4375
scalar Network.dyn_peer[9964] 	lookupTimeSig:mean 	4.7
scalar Network.dyn_peer[9964] 	lookupStabilitySig:mean 	0.99419904649923
scalar Network.dyn_peer[9964] 	lookupHopsSig:mean 	46.142857142857
scalar Network.dyn_peer[9965] 	lookupTimeSig:mean 	7.175
scalar Network.dyn_peer[9965] 	lookupStabilitySig:mean 	0.99098344251979
scalar Network.dyn_peer[9965] 	lookupHopsSig:mean 	71
scalar Network.dyn_peer[9966] 	lookupTimeSig:mean 	6.1285714285714
scalar Network.dyn_peer[9966] 	lookupStabilitySig:mean 	0.99268108200548
scalar Network.dyn_peer[9966] 	lookupHopsSig:mean 	60.428571428571
scalar Network.dyn_peer[9967] 	lookupTimeSig:mean 	5.3666666666667
scalar Network.dyn_peer[9967] 	lookupStabilitySig:mean 	0.99333849665709
scalar Network.dyn_peer[9967] 	lookupHopsSig:mean 	52.833333333333
scalar Network.dyn_peer[9968] 	lookupTimeSig:mean 	6.125
scalar Network.dyn_peer[9968] 	lookupStabilitySig:mean 	0.9931972110644
scalar Network.dyn_peer[9968] 	lookupHopsSig:mean 	60.333333333333
scalar Network.dyn_peer[9969] 	lookupTimeSig:mean 	3.9
scalar Network.dyn_peer[9969] 	lookupStabilitySig:mean 	0.9954891923027
scalar Network.dyn_peer[9969] 	lookupHopsSig:mean 	38.076923076923
scalar Network.dyn_peer[9970] 	lookupTimeSig:mean 	5.1
scalar Network.dyn_peer[9970] 	lookupStabilitySig:mean 	0.99439583215863
scalar Network.dyn_peer[9970] 	lookupHopsSig:mean 	50.066666666667
scalar Network.dyn_peer[9971] 	lookupTimeSig:mean 	4.725
scalar Network.dyn_peer[9971] 	lookupStabilitySig:mean 	0.99428810553945
scalar Network.dyn_peer[9971] 	lookupHopsSig:mean 	46.375
scalar Network.dyn_peer[9972] 	lookupTimeSig:mean 	7.3833333333333
scalar Network.dyn_peer[9972] 	lookupStabilitySig:mean 	0.99134079103048
scalar Network.dyn_peer[9972] 	lookupHopsSig:mean 	73
scalar Network.dyn_peer[9973] 	lookupTimeSig:mean 	4.4428571428571
scalar Network.dyn_peer[9973] 	lookupStabilitySig:mean 	0.99500989884005
scalar Network.dyn_peer[9973] 	lookupHopsSig:mean 	43.5
scalar Network.dyn_peer[9974] 	lookupTimeSig:mean 	6.5333333333333
scalar Network.dyn_peer[9974] 	lookupStabilitySig:mean 	0.99282172698683
scalar Network.dyn_peer[9974] 	lookupHopsSig:mean 	64.416666666667
scalar Network.dyn_peer[9975] 	lookupTimeSig:mean 	6.4571428571429
scalar Network.dyn_peer[9975] 	lookupStabilitySig:mean 	0.99244387739704
scalar Network.dyn_peer[9975] 	lookupHopsSig:mean 	63.714285714286
scalar Network.dyn_peer[9976] 	lookupTimeSig:mean 	5.2142857142857
scalar Network.dyn_peer[9976] 	lookupStabilitySig:mean 	0.99388996824356
scalar Network.dyn_peer[9976] 	lookupHopsSig:mean 	51.285714285714
scalar Network.dyn_peer[9977] 	lookupTimeSig:mean 	5.0571428571429
scalar Network.dyn_peer[9977] 	lookupStabilitySig:mean 	0.99388835036994
scalar Network.dyn_peer[9977] 	lookupHopsSig:mean 	49.714285714286
scalar Network.dyn_peer[9978] 	lookupTimeSig:mean 	5.4444444444444
scalar Network.dyn_peer[9978] 	lookupStabilitySig:mean 	0.99362185318023
scalar Network.dyn_peer[9978] 	lookupHopsSig:mean 	53.555555555556
scalar Network.dyn_peer[9979] 	lookupTimeSig:mean 	5.9625
scalar Network.dyn_peer[9979] 	lookupStabilitySig:mean 	0.99305665280554
scalar Network.dyn_peer[9979] 	lookupHopsSig:mean 	58.75
scalar Network.dyn_peer[9980] 	lookupTimeSig:mean 	6.35
scalar Network.dyn_peer[9980] 	lookupStabilitySig:mean 	0.99264824214333
scalar Network.dyn_peer[9980] 	lookupHopsSig:mean 	62.625
scalar Network.dyn_peer[9981] 	lookupTimeSig:mean 	3.58
scalar Network.dyn_peer[9981] 	lookupStabilitySig:mean 	0.99527067365125
scalar Network.dyn_peer[9981] 	lookupHopsSig:mean 	35
scalar Network.dyn_peer[9982] 	lookupTimeSig:mean 	3.3428571428571
scalar Network.dyn_peer[9982] 	lookupStabilitySig:mean 	0.99570296019582
scalar Network.dyn_peer[9982] 	lookupHopsSig:mean 	32.571428571429
scalar Network.dyn_peer[9983] 	lookupTimeSig:mean 	5.0333333333333
scalar Network.dyn_peer[9983] 	lookupStabilitySig:mean 	0.99328599218279
scalar Network.dyn_peer[9983] 	lookupHopsSig:mean 	49.666666666667
scalar Network.dyn_peer[9984] 	lookupTimeSig:mean 	6
scalar Network.dyn_peer[9984] 	lookupStabilitySig:mean 	0.99251162009314
scalar Network.dyn_peer[9984] 	lookupHopsSig:mean 	59.2
scalar Network.dyn_peer[9985] 	lookupTimeSig:mean 	5.05
scalar Network.dyn_peer[9985] 	lookupStabilitySig:mean 	0.9934468815627
scalar Network.dyn_peer[9985] 	lookupHopsSig:mean 	49.75
scalar Network.dyn_peer[9986] 	lookupTimeSig:mean 	5.4444444444444
scalar Network.dyn_peer[9986] 	lookupStabilitySig:mean 	0.99364527097593
scalar Network.dyn_peer[9986] 	lookupHopsSig:mean 	53.555555555556
scalar Network.dyn_peer[9987] 	lookupTimeSig:mean 	5.06
scalar Network.dyn_peer[9987] 	lookupStabilitySig:mean 	0.99354682853445
scalar Network.dyn_peer[9987] 	lookupHopsSig:mean 	49.8
scalar Network.dyn_peer[9988] 	lookupTimeSig:mean 	5.7571428571429
scalar Network.dyn_peer[9988] 	lookupStabilitySig:mean 	0.99313633967124
scalar Network.dyn_peer[9988] 	lookupHopsSig:mean 	56.714285714286
scalar Network.dyn_peer[9989] 	lookupTimeSig:mean 	5.3625
scalar Network.dyn_peer[9989] 	lookupStabilitySig:mean 	0.99361418103217
scalar Network.dyn_peer[9989] 	lookupHopsSig:mean 	52.75
scalar Network.dyn_peer[9990] 	lookupTimeSig:mean 	3.9125
scalar Network.dyn_peer[9990] 	lookupStabilitySig:mean 	0.99516566170496
scalar Network.dyn_peer[9990] 	lookupHopsSig:mean 	38.25
scalar Network.dyn_peer[9991] 	lookupTimeSig:mean 	4.4583333333333
scalar Network.dyn_peer[9991] 	lookupStabilitySig:mean 	0.9949056187761
scalar Network.dyn_peer[9991] 	lookupHopsSig:mean 	43.666666666667
scalar Network.dyn_peer[9992] 	lookupTimeSig:mean 	4.75
scalar Network.dyn_peer[9992] 	lookupStabilitySig:mean 	0.99401987910581
scalar Network.dyn_peer[9992] 	lookupHopsSig:mean 	46.666666666667
scalar Network.dyn_peer[9993] 	lookupTimeSig:mean 	4.2
scalar Network.dyn_peer[9993] 	lookupStabilitySig:mean 	0.9953197945797
scalar Network.dyn_peer[9993] 	lookupHopsSig:mean 	41.0625
scalar Network.dyn_peer[9994] 	lookupTimeSig:mean 	3.8272727272727
scalar Network.dyn_peer[9994] 	lookupStabilitySig:mean 	0.99543810226235
scalar Network.dyn_peer[9994] 	lookupHopsSig:mean 	37.363636363636
scalar Network.dyn_peer[9995] 	lookupTimeSig:mean 	2.9
scalar Network.dyn_peer[9995] 	lookupStabilitySig:mean 	0.99589105660561
scalar Network.dyn_peer[9995] 	lookupHopsSig:mean 	28.5
scalar Network.dyn_peer[9996] 	lookupTimeSig:mean 	4.52
scalar Network.dyn_peer[9996] 	lookupStabilitySig:mean 	0.9941805473587
scalar Network.dyn_peer[9996] 	lookupHopsSig:mean 	44.4
scalar Network.dyn_peer[9997] 	lookupTimeSig:mean 	5.39
scalar Network.dyn_peer[9997] 	lookupStabilitySig:mean 	0.99381385280285
scalar Network.dyn_peer[9997] 	lookupHopsSig:mean 	53
scalar Network.dyn_peer[9998] 	lookupTimeSig:mean 	4.65
scalar Network.dyn_peer[9998] 	lookupStabilitySig:mean 	0.99480123641635
scalar Network.dyn_peer[9998] 	lookupHopsSig:mean 	45.571428571429
scalar Network.dyn_peer[9999] 	lookupTimeSig:mean 	6.2
scalar Network.dyn_peer[9999] 	lookupStabilitySig:mean 	0.99207361962181
scalar Network.dyn_peer[9999] 	lookupHopsSig:mean 	61.25
scalar Network.churner 	inGoingSizeSig:mean 	2096.0599940006
