version 2
run Stability2-109-20130528-11:55:53-24168
attr configname Stability2
attr datetime 20130528-11:55:53
attr experiment Stability2
attr inifile omnetpp.ini
attr iterationvars $0=1000
attr iterationvars2 "$0=1000, $repetition=9"
attr measurement $0=1000
attr network Network
attr processid 24168
attr repetition 9
attr replication #9
attr resultdir results
attr runnumber 109
attr seedset 109

scalar Network.dyn_peer[0] 	lookupTimeSig:mean 	3.4058823529412
scalar Network.dyn_peer[0] 	lookupStabilitySig:mean 	0.84571899783195
scalar Network.dyn_peer[0] 	lookupHopsSig:mean 	33.117647058824
scalar Network.dyn_peer[1] 	lookupTimeSig:mean 	3.5608695652174
scalar Network.dyn_peer[1] 	lookupStabilitySig:mean 	0.90434826388145
scalar Network.dyn_peer[1] 	lookupHopsSig:mean 	34.652173913043
scalar Network.dyn_peer[2] 	lookupTimeSig:mean 	3
scalar Network.dyn_peer[2] 	lookupStabilitySig:mean 	0.84965954435756
scalar Network.dyn_peer[2] 	lookupHopsSig:mean 	29.0625
scalar Network.dyn_peer[3] 	lookupTimeSig:mean 	3.67
scalar Network.dyn_peer[3] 	lookupStabilitySig:mean 	0.86291228041518
scalar Network.dyn_peer[3] 	lookupHopsSig:mean 	35.75
scalar Network.dyn_peer[4] 	lookupTimeSig:mean 	3.64
scalar Network.dyn_peer[4] 	lookupStabilitySig:mean 	0.87579080774449
scalar Network.dyn_peer[4] 	lookupHopsSig:mean 	35.45
scalar Network.dyn_peer[5] 	lookupTimeSig:mean 	3.1086956521739
scalar Network.dyn_peer[5] 	lookupStabilitySig:mean 	0.88872415857875
scalar Network.dyn_peer[5] 	lookupHopsSig:mean 	30.130434782609
scalar Network.dyn_peer[6] 	lookupTimeSig:mean 	3.575
scalar Network.dyn_peer[6] 	lookupStabilitySig:mean 	0.85151606950967
scalar Network.dyn_peer[6] 	lookupHopsSig:mean 	34.8125
scalar Network.dyn_peer[7] 	lookupTimeSig:mean 	4.0625
scalar Network.dyn_peer[7] 	lookupStabilitySig:mean 	0.83031929293065
scalar Network.dyn_peer[7] 	lookupHopsSig:mean 	39.6875
scalar Network.dyn_peer[8] 	lookupTimeSig:mean 	2.9761904761905
scalar Network.dyn_peer[8] 	lookupStabilitySig:mean 	0.88385091042368
scalar Network.dyn_peer[8] 	lookupHopsSig:mean 	28.809523809524
scalar Network.dyn_peer[9] 	lookupTimeSig:mean 	3.3190476190476
scalar Network.dyn_peer[9] 	lookupStabilitySig:mean 	0.88214463447886
scalar Network.dyn_peer[9] 	lookupHopsSig:mean 	32.238095238095
scalar Network.dyn_peer[10] 	lookupTimeSig:mean 	2.8689655172414
scalar Network.dyn_peer[10] 	lookupStabilitySig:mean 	0.91248339326482
scalar Network.dyn_peer[10] 	lookupHopsSig:mean 	27.724137931034
scalar Network.dyn_peer[11] 	lookupTimeSig:mean 	4.0533333333333
scalar Network.dyn_peer[11] 	lookupStabilitySig:mean 	0.89330684974169
scalar Network.dyn_peer[11] 	lookupHopsSig:mean 	39.6
scalar Network.dyn_peer[12] 	lookupTimeSig:mean 	2.2882352941176
scalar Network.dyn_peer[12] 	lookupStabilitySig:mean 	0.84997534297188
scalar Network.dyn_peer[12] 	lookupHopsSig:mean 	21.941176470588
scalar Network.dyn_peer[13] 	lookupTimeSig:mean 	2.9823529411765
scalar Network.dyn_peer[13] 	lookupStabilitySig:mean 	0.86282926022678
scalar Network.dyn_peer[13] 	lookupHopsSig:mean 	28.882352941176
scalar Network.dyn_peer[14] 	lookupTimeSig:mean 	2.4266666666667
scalar Network.dyn_peer[14] 	lookupStabilitySig:mean 	0.87109883089239
scalar Network.dyn_peer[14] 	lookupHopsSig:mean 	23.333333333333
scalar Network.dyn_peer[15] 	lookupTimeSig:mean 	2.5708333333333
scalar Network.dyn_peer[15] 	lookupStabilitySig:mean 	0.91746120110232
scalar Network.dyn_peer[15] 	lookupHopsSig:mean 	24.75
scalar Network.dyn_peer[16] 	lookupTimeSig:mean 	4.3615384615385
scalar Network.dyn_peer[16] 	lookupStabilitySig:mean 	0.89901764139246
scalar Network.dyn_peer[16] 	lookupHopsSig:mean 	42.653846153846
scalar Network.dyn_peer[17] 	lookupTimeSig:mean 	1.8818181818182
scalar Network.dyn_peer[17] 	lookupStabilitySig:mean 	0.84393196155063
scalar Network.dyn_peer[17] 	lookupHopsSig:mean 	17.909090909091
scalar Network.dyn_peer[18] 	lookupTimeSig:mean 	2.5095238095238
scalar Network.dyn_peer[18] 	lookupStabilitySig:mean 	0.89541864399576
scalar Network.dyn_peer[18] 	lookupHopsSig:mean 	24.142857142857
scalar Network.dyn_peer[19] 	lookupTimeSig:mean 	3.46
scalar Network.dyn_peer[19] 	lookupStabilitySig:mean 	0.88021996893804
scalar Network.dyn_peer[19] 	lookupHopsSig:mean 	33.65
scalar Network.dyn_peer[20] 	lookupTimeSig:mean 	2.1
scalar Network.dyn_peer[20] 	lookupStabilitySig:mean 	0.89291693230993
scalar Network.dyn_peer[20] 	lookupHopsSig:mean 	20.052631578947
scalar Network.dyn_peer[21] 	lookupTimeSig:mean 	3.2444444444444
scalar Network.dyn_peer[21] 	lookupStabilitySig:mean 	0.90096181900137
scalar Network.dyn_peer[21] 	lookupHopsSig:mean 	31.5
scalar Network.dyn_peer[22] 	lookupTimeSig:mean 	3.7413793103448
scalar Network.dyn_peer[22] 	lookupStabilitySig:mean 	0.90833775430581
scalar Network.dyn_peer[22] 	lookupHopsSig:mean 	36.448275862069
scalar Network.dyn_peer[23] 	lookupTimeSig:mean 	3.1142857142857
scalar Network.dyn_peer[23] 	lookupStabilitySig:mean 	0.8919222913239
scalar Network.dyn_peer[23] 	lookupHopsSig:mean 	30.190476190476
scalar Network.dyn_peer[24] 	lookupTimeSig:mean 	2.4285714285714
scalar Network.dyn_peer[24] 	lookupStabilitySig:mean 	0.89345040782133
scalar Network.dyn_peer[24] 	lookupHopsSig:mean 	23.333333333333
scalar Network.dyn_peer[25] 	lookupTimeSig:mean 	2.6263157894737
scalar Network.dyn_peer[25] 	lookupStabilitySig:mean 	0.88127091100537
scalar Network.dyn_peer[25] 	lookupHopsSig:mean 	25.315789473684
scalar Network.dyn_peer[26] 	lookupTimeSig:mean 	3.4631578947368
scalar Network.dyn_peer[26] 	lookupStabilitySig:mean 	0.889488455962
scalar Network.dyn_peer[26] 	lookupHopsSig:mean 	33.684210526316
scalar Network.dyn_peer[27] 	lookupTimeSig:mean 	3.2315789473684
scalar Network.dyn_peer[27] 	lookupStabilitySig:mean 	0.91882934236262
scalar Network.dyn_peer[27] 	lookupHopsSig:mean 	31.368421052632
scalar Network.dyn_peer[28] 	lookupTimeSig:mean 	3.0037037037037
scalar Network.dyn_peer[28] 	lookupStabilitySig:mean 	0.92035644994057
scalar Network.dyn_peer[28] 	lookupHopsSig:mean 	29.074074074074
scalar Network.dyn_peer[29] 	lookupTimeSig:mean 	3.6727272727273
scalar Network.dyn_peer[29] 	lookupStabilitySig:mean 	0.89353829918599
scalar Network.dyn_peer[29] 	lookupHopsSig:mean 	35.772727272727
scalar Network.dyn_peer[30] 	lookupTimeSig:mean 	2.4578947368421
scalar Network.dyn_peer[30] 	lookupStabilitySig:mean 	0.91194586137212
scalar Network.dyn_peer[30] 	lookupHopsSig:mean 	23.631578947368
scalar Network.dyn_peer[31] 	lookupTimeSig:mean 	3.305
scalar Network.dyn_peer[31] 	lookupStabilitySig:mean 	0.88294278061949
scalar Network.dyn_peer[31] 	lookupHopsSig:mean 	32.1
scalar Network.dyn_peer[32] 	lookupTimeSig:mean 	3.3058823529412
scalar Network.dyn_peer[32] 	lookupStabilitySig:mean 	0.88810691555195
scalar Network.dyn_peer[32] 	lookupHopsSig:mean 	32.117647058824
scalar Network.dyn_peer[33] 	lookupTimeSig:mean 	3.2739130434783
scalar Network.dyn_peer[33] 	lookupStabilitySig:mean 	0.89810455180502
scalar Network.dyn_peer[33] 	lookupHopsSig:mean 	31.782608695652
scalar Network.dyn_peer[34] 	lookupTimeSig:mean 	2.7791666666667
scalar Network.dyn_peer[34] 	lookupStabilitySig:mean 	0.92221586636636
scalar Network.dyn_peer[34] 	lookupHopsSig:mean 	26.833333333333
scalar Network.dyn_peer[35] 	lookupTimeSig:mean 	2.5444444444444
scalar Network.dyn_peer[35] 	lookupStabilitySig:mean 	0.90142452683196
scalar Network.dyn_peer[35] 	lookupHopsSig:mean 	24.5
scalar Network.dyn_peer[36] 	lookupTimeSig:mean 	2.9294117647059
scalar Network.dyn_peer[36] 	lookupStabilitySig:mean 	0.86858967105475
scalar Network.dyn_peer[36] 	lookupHopsSig:mean 	28.352941176471
scalar Network.dyn_peer[37] 	lookupTimeSig:mean 	4
scalar Network.dyn_peer[37] 	lookupStabilitySig:mean 	0.89658530305504
scalar Network.dyn_peer[37] 	lookupHopsSig:mean 	39.04347826087
scalar Network.dyn_peer[38] 	lookupTimeSig:mean 	3.4206896551724
scalar Network.dyn_peer[38] 	lookupStabilitySig:mean 	0.92422837851537
scalar Network.dyn_peer[38] 	lookupHopsSig:mean 	33.241379310345
scalar Network.dyn_peer[39] 	lookupTimeSig:mean 	2.9263157894737
scalar Network.dyn_peer[39] 	lookupStabilitySig:mean 	0.89239984753199
scalar Network.dyn_peer[39] 	lookupHopsSig:mean 	28.315789473684
scalar Network.dyn_peer[40] 	lookupTimeSig:mean 	3.8266666666667
scalar Network.dyn_peer[40] 	lookupStabilitySig:mean 	0.86850604558519
scalar Network.dyn_peer[40] 	lookupHopsSig:mean 	37.333333333333
scalar Network.dyn_peer[41] 	lookupTimeSig:mean 	3.5705882352941
scalar Network.dyn_peer[41] 	lookupStabilitySig:mean 	0.87237345586147
scalar Network.dyn_peer[41] 	lookupHopsSig:mean 	34.764705882353
scalar Network.dyn_peer[42] 	lookupTimeSig:mean 	1.8076923076923
scalar Network.dyn_peer[42] 	lookupStabilitySig:mean 	0.84805371128739
scalar Network.dyn_peer[42] 	lookupHopsSig:mean 	17.153846153846
scalar Network.dyn_peer[43] 	lookupTimeSig:mean 	2.595
scalar Network.dyn_peer[43] 	lookupStabilitySig:mean 	0.89933924417128
scalar Network.dyn_peer[43] 	lookupHopsSig:mean 	25
scalar Network.dyn_peer[44] 	lookupTimeSig:mean 	2.8947368421053
scalar Network.dyn_peer[44] 	lookupStabilitySig:mean 	0.91917149653952
scalar Network.dyn_peer[44] 	lookupHopsSig:mean 	28
scalar Network.dyn_peer[45] 	lookupTimeSig:mean 	3.9307692307692
scalar Network.dyn_peer[45] 	lookupStabilitySig:mean 	0.92974902281556
scalar Network.dyn_peer[45] 	lookupHopsSig:mean 	38.346153846154
scalar Network.dyn_peer[46] 	lookupTimeSig:mean 	3.2555555555556
scalar Network.dyn_peer[46] 	lookupStabilitySig:mean 	0.92669614882174
scalar Network.dyn_peer[46] 	lookupHopsSig:mean 	31.592592592593
scalar Network.dyn_peer[47] 	lookupTimeSig:mean 	2.7705882352941
scalar Network.dyn_peer[47] 	lookupStabilitySig:mean 	0.89970033193993
scalar Network.dyn_peer[47] 	lookupHopsSig:mean 	26.764705882353
scalar Network.dyn_peer[48] 	lookupTimeSig:mean 	2.42
scalar Network.dyn_peer[48] 	lookupStabilitySig:mean 	0.87193974073355
scalar Network.dyn_peer[48] 	lookupHopsSig:mean 	23.266666666667
scalar Network.dyn_peer[49] 	lookupTimeSig:mean 	3.14
scalar Network.dyn_peer[49] 	lookupStabilitySig:mean 	0.91898399628699
scalar Network.dyn_peer[49] 	lookupHopsSig:mean 	30.45
scalar Network.dyn_peer[50] 	lookupTimeSig:mean 	2.9571428571429
scalar Network.dyn_peer[50] 	lookupStabilitySig:mean 	0.90234604493404
scalar Network.dyn_peer[50] 	lookupHopsSig:mean 	28.619047619048
scalar Network.dyn_peer[51] 	lookupTimeSig:mean 	3.0722222222222
scalar Network.dyn_peer[51] 	lookupStabilitySig:mean 	0.91441517237884
scalar Network.dyn_peer[51] 	lookupHopsSig:mean 	29.777777777778
scalar Network.dyn_peer[52] 	lookupTimeSig:mean 	2.856
scalar Network.dyn_peer[52] 	lookupStabilitySig:mean 	0.91206001849845
scalar Network.dyn_peer[52] 	lookupHopsSig:mean 	27.6
scalar Network.dyn_peer[53] 	lookupTimeSig:mean 	2.1533333333333
scalar Network.dyn_peer[53] 	lookupStabilitySig:mean 	0.91499940790236
scalar Network.dyn_peer[53] 	lookupHopsSig:mean 	20.6
scalar Network.dyn_peer[54] 	lookupTimeSig:mean 	3.0133333333333
scalar Network.dyn_peer[54] 	lookupStabilitySig:mean 	0.89420619681478
scalar Network.dyn_peer[54] 	lookupHopsSig:mean 	29.2
scalar Network.dyn_peer[55] 	lookupTimeSig:mean 	2.91
scalar Network.dyn_peer[55] 	lookupStabilitySig:mean 	0.87966927411035
scalar Network.dyn_peer[55] 	lookupHopsSig:mean 	28.2
scalar Network.dyn_peer[56] 	lookupTimeSig:mean 	3.452380952381
scalar Network.dyn_peer[56] 	lookupStabilitySig:mean 	0.92738319118507
scalar Network.dyn_peer[56] 	lookupHopsSig:mean 	33.571428571429
scalar Network.dyn_peer[57] 	lookupTimeSig:mean 	4.2363636363636
scalar Network.dyn_peer[57] 	lookupStabilitySig:mean 	0.94211753798564
scalar Network.dyn_peer[57] 	lookupHopsSig:mean 	41.409090909091
scalar Network.dyn_peer[58] 	lookupTimeSig:mean 	3.6266666666667
scalar Network.dyn_peer[58] 	lookupStabilitySig:mean 	0.91985189255017
scalar Network.dyn_peer[58] 	lookupHopsSig:mean 	35.333333333333
scalar Network.dyn_peer[59] 	lookupTimeSig:mean 	2.2615384615385
scalar Network.dyn_peer[59] 	lookupStabilitySig:mean 	0.88968970934645
scalar Network.dyn_peer[59] 	lookupHopsSig:mean 	21.692307692308
scalar Network.dyn_peer[60] 	lookupTimeSig:mean 	3.7047619047619
scalar Network.dyn_peer[60] 	lookupStabilitySig:mean 	0.91616403539887
scalar Network.dyn_peer[60] 	lookupHopsSig:mean 	36.095238095238
scalar Network.dyn_peer[61] 	lookupTimeSig:mean 	4.1272727272727
scalar Network.dyn_peer[61] 	lookupStabilitySig:mean 	0.91213237770452
scalar Network.dyn_peer[61] 	lookupHopsSig:mean 	40.318181818182
scalar Network.dyn_peer[62] 	lookupTimeSig:mean 	3.488
scalar Network.dyn_peer[62] 	lookupStabilitySig:mean 	0.93425068438053
scalar Network.dyn_peer[62] 	lookupHopsSig:mean 	33.92
scalar Network.dyn_peer[63] 	lookupTimeSig:mean 	2.5863636363636
scalar Network.dyn_peer[63] 	lookupStabilitySig:mean 	0.92477530390765
scalar Network.dyn_peer[63] 	lookupHopsSig:mean 	24.909090909091
scalar Network.dyn_peer[64] 	lookupTimeSig:mean 	3.5
scalar Network.dyn_peer[64] 	lookupStabilitySig:mean 	0.93806224504414
scalar Network.dyn_peer[64] 	lookupHopsSig:mean 	34.038461538462
scalar Network.dyn_peer[65] 	lookupTimeSig:mean 	3.3393939393939
scalar Network.dyn_peer[65] 	lookupStabilitySig:mean 	0.95358090527412
scalar Network.dyn_peer[65] 	lookupHopsSig:mean 	32.424242424242
scalar Network.dyn_peer[66] 	lookupTimeSig:mean 	2.2866666666667
scalar Network.dyn_peer[66] 	lookupStabilitySig:mean 	0.92799915416787
scalar Network.dyn_peer[66] 	lookupHopsSig:mean 	21.933333333333
scalar Network.dyn_peer[67] 	lookupTimeSig:mean 	3.752
scalar Network.dyn_peer[67] 	lookupStabilitySig:mean 	0.92910480978899
scalar Network.dyn_peer[67] 	lookupHopsSig:mean 	36.56
scalar Network.dyn_peer[68] 	lookupTimeSig:mean 	2.0846153846154
scalar Network.dyn_peer[68] 	lookupStabilitySig:mean 	0.8939676286581
scalar Network.dyn_peer[68] 	lookupHopsSig:mean 	19.923076923077
scalar Network.dyn_peer[69] 	lookupTimeSig:mean 	3.6055555555556
scalar Network.dyn_peer[69] 	lookupStabilitySig:mean 	0.90945682271073
scalar Network.dyn_peer[69] 	lookupHopsSig:mean 	35.111111111111
scalar Network.dyn_peer[70] 	lookupTimeSig:mean 	2.3
scalar Network.dyn_peer[70] 	lookupStabilitySig:mean 	0.93177389882897
scalar Network.dyn_peer[70] 	lookupHopsSig:mean 	22.052631578947
scalar Network.dyn_peer[71] 	lookupTimeSig:mean 	2.972
scalar Network.dyn_peer[71] 	lookupStabilitySig:mean 	0.95836061870679
scalar Network.dyn_peer[71] 	lookupHopsSig:mean 	28.76
scalar Network.dyn_peer[72] 	lookupTimeSig:mean 	3.8866666666667
scalar Network.dyn_peer[72] 	lookupStabilitySig:mean 	0.92603772776201
scalar Network.dyn_peer[72] 	lookupHopsSig:mean 	37.933333333333
scalar Network.dyn_peer[73] 	lookupTimeSig:mean 	3.2318181818182
scalar Network.dyn_peer[73] 	lookupStabilitySig:mean 	0.93786812708343
scalar Network.dyn_peer[73] 	lookupHopsSig:mean 	31.363636363636
scalar Network.dyn_peer[74] 	lookupTimeSig:mean 	2.7347826086957
scalar Network.dyn_peer[74] 	lookupStabilitySig:mean 	0.9273521703587
scalar Network.dyn_peer[74] 	lookupHopsSig:mean 	26.391304347826
scalar Network.dyn_peer[75] 	lookupTimeSig:mean 	3.8916666666667
scalar Network.dyn_peer[75] 	lookupStabilitySig:mean 	0.93632559517088
scalar Network.dyn_peer[75] 	lookupHopsSig:mean 	38
scalar Network.dyn_peer[76] 	lookupTimeSig:mean 	1.6210526315789
scalar Network.dyn_peer[76] 	lookupStabilitySig:mean 	0.91618599210817
scalar Network.dyn_peer[76] 	lookupHopsSig:mean 	15.263157894737
scalar Network.dyn_peer[77] 	lookupTimeSig:mean 	3.2
scalar Network.dyn_peer[77] 	lookupStabilitySig:mean 	0.93216174565411
scalar Network.dyn_peer[77] 	lookupHopsSig:mean 	31.055555555556
scalar Network.dyn_peer[78] 	lookupTimeSig:mean 	5.0590909090909
scalar Network.dyn_peer[78] 	lookupStabilitySig:mean 	0.94264225432099
scalar Network.dyn_peer[78] 	lookupHopsSig:mean 	49.636363636364
scalar Network.dyn_peer[79] 	lookupTimeSig:mean 	1.8083333333333
scalar Network.dyn_peer[79] 	lookupStabilitySig:mean 	0.89584070063817
scalar Network.dyn_peer[79] 	lookupHopsSig:mean 	17.166666666667
scalar Network.dyn_peer[80] 	lookupTimeSig:mean 	3.5470588235294
scalar Network.dyn_peer[80] 	lookupStabilitySig:mean 	0.91289308080998
scalar Network.dyn_peer[80] 	lookupHopsSig:mean 	34.529411764706
scalar Network.dyn_peer[81] 	lookupTimeSig:mean 	2.78
scalar Network.dyn_peer[81] 	lookupStabilitySig:mean 	0.94578002254711
scalar Network.dyn_peer[81] 	lookupHopsSig:mean 	26.85
scalar Network.dyn_peer[82] 	lookupTimeSig:mean 	2.4733333333333
scalar Network.dyn_peer[82] 	lookupStabilitySig:mean 	0.93322553131729
scalar Network.dyn_peer[82] 	lookupHopsSig:mean 	23.8
scalar Network.dyn_peer[83] 	lookupTimeSig:mean 	3.7291666666667
scalar Network.dyn_peer[83] 	lookupStabilitySig:mean 	0.94278593784353
scalar Network.dyn_peer[83] 	lookupHopsSig:mean 	36.333333333333
scalar Network.dyn_peer[84] 	lookupTimeSig:mean 	3.4428571428571
scalar Network.dyn_peer[84] 	lookupStabilitySig:mean 	0.93513982658762
scalar Network.dyn_peer[84] 	lookupHopsSig:mean 	33.47619047619
scalar Network.dyn_peer[85] 	lookupTimeSig:mean 	3.26
scalar Network.dyn_peer[85] 	lookupStabilitySig:mean 	0.94540812091902
scalar Network.dyn_peer[85] 	lookupHopsSig:mean 	31.64
scalar Network.dyn_peer[86] 	lookupTimeSig:mean 	3.4772727272727
scalar Network.dyn_peer[86] 	lookupStabilitySig:mean 	0.94006219284281
scalar Network.dyn_peer[86] 	lookupHopsSig:mean 	33.818181818182
scalar Network.dyn_peer[87] 	lookupTimeSig:mean 	3.132
scalar Network.dyn_peer[87] 	lookupStabilitySig:mean 	0.94078238729388
scalar Network.dyn_peer[87] 	lookupHopsSig:mean 	30.36
scalar Network.dyn_peer[88] 	lookupTimeSig:mean 	1.9
scalar Network.dyn_peer[88] 	lookupStabilitySig:mean 	0.92137223496102
scalar Network.dyn_peer[88] 	lookupHopsSig:mean 	18.1
scalar Network.dyn_peer[89] 	lookupTimeSig:mean 	2.75
scalar Network.dyn_peer[89] 	lookupStabilitySig:mean 	0.95035330247959
scalar Network.dyn_peer[89] 	lookupHopsSig:mean 	26.545454545455
scalar Network.dyn_peer[90] 	lookupTimeSig:mean 	4.015
scalar Network.dyn_peer[90] 	lookupStabilitySig:mean 	0.94038834837265
scalar Network.dyn_peer[90] 	lookupHopsSig:mean 	39.2
scalar Network.dyn_peer[91] 	lookupTimeSig:mean 	2.9714285714286
scalar Network.dyn_peer[91] 	lookupStabilitySig:mean 	0.92453499459329
scalar Network.dyn_peer[91] 	lookupHopsSig:mean 	28.785714285714
scalar Network.dyn_peer[92] 	lookupTimeSig:mean 	3.8933333333333
scalar Network.dyn_peer[92] 	lookupStabilitySig:mean 	0.9160610262615
scalar Network.dyn_peer[92] 	lookupHopsSig:mean 	38
scalar Network.dyn_peer[93] 	lookupTimeSig:mean 	2.4416666666667
scalar Network.dyn_peer[93] 	lookupStabilitySig:mean 	0.90389388314604
scalar Network.dyn_peer[93] 	lookupHopsSig:mean 	23.5
scalar Network.dyn_peer[94] 	lookupTimeSig:mean 	2.6307692307692
scalar Network.dyn_peer[94] 	lookupStabilitySig:mean 	0.91922112255214
scalar Network.dyn_peer[94] 	lookupHopsSig:mean 	25.384615384615
scalar Network.dyn_peer[95] 	lookupTimeSig:mean 	3.9631578947368
scalar Network.dyn_peer[95] 	lookupStabilitySig:mean 	0.93095138863856
scalar Network.dyn_peer[95] 	lookupHopsSig:mean 	38.684210526316
scalar Network.dyn_peer[96] 	lookupTimeSig:mean 	3.05
scalar Network.dyn_peer[96] 	lookupStabilitySig:mean 	0.94851721501486
scalar Network.dyn_peer[96] 	lookupHopsSig:mean 	29.545454545455
scalar Network.dyn_peer[97] 	lookupTimeSig:mean 	4.1625
scalar Network.dyn_peer[97] 	lookupStabilitySig:mean 	0.93590887535538
scalar Network.dyn_peer[97] 	lookupHopsSig:mean 	40.6875
scalar Network.dyn_peer[98] 	lookupTimeSig:mean 	3.6666666666667
scalar Network.dyn_peer[98] 	lookupStabilitySig:mean 	0.94204376708755
scalar Network.dyn_peer[98] 	lookupHopsSig:mean 	35.708333333333
scalar Network.dyn_peer[99] 	lookupTimeSig:mean 	3.3173913043478
scalar Network.dyn_peer[99] 	lookupStabilitySig:mean 	0.9570037599896
scalar Network.dyn_peer[99] 	lookupHopsSig:mean 	32.217391304348
scalar Network.dyn_peer[100] 	lookupTimeSig:mean 	2.5117647058824
scalar Network.dyn_peer[100] 	lookupStabilitySig:mean 	0.93133691462743
scalar Network.dyn_peer[100] 	lookupHopsSig:mean 	24.176470588235
scalar Network.dyn_peer[101] 	lookupTimeSig:mean 	3.7571428571429
scalar Network.dyn_peer[101] 	lookupStabilitySig:mean 	0.94582405013387
scalar Network.dyn_peer[101] 	lookupHopsSig:mean 	36.619047619048
scalar Network.dyn_peer[102] 	lookupTimeSig:mean 	2.2277777777778
scalar Network.dyn_peer[102] 	lookupStabilitySig:mean 	0.93579612449846
scalar Network.dyn_peer[102] 	lookupHopsSig:mean 	21.333333333333
scalar Network.dyn_peer[103] 	lookupTimeSig:mean 	3.46
scalar Network.dyn_peer[103] 	lookupStabilitySig:mean 	0.93109492687508
scalar Network.dyn_peer[103] 	lookupHopsSig:mean 	33.65
scalar Network.dyn_peer[104] 	lookupTimeSig:mean 	4.1357142857143
scalar Network.dyn_peer[104] 	lookupStabilitySig:mean 	0.95335709358915
scalar Network.dyn_peer[104] 	lookupHopsSig:mean 	40.392857142857
scalar Network.dyn_peer[105] 	lookupTimeSig:mean 	3.2347826086957
scalar Network.dyn_peer[105] 	lookupStabilitySig:mean 	0.94849662139187
scalar Network.dyn_peer[105] 	lookupHopsSig:mean 	31.391304347826
scalar Network.dyn_peer[106] 	lookupTimeSig:mean 	4.18125
scalar Network.dyn_peer[106] 	lookupStabilitySig:mean 	0.92241893528262
scalar Network.dyn_peer[106] 	lookupHopsSig:mean 	40.875
scalar Network.dyn_peer[107] 	lookupTimeSig:mean 	3.0111111111111
scalar Network.dyn_peer[107] 	lookupStabilitySig:mean 	0.93281285012037
scalar Network.dyn_peer[107] 	lookupHopsSig:mean 	29.166666666667
scalar Network.dyn_peer[108] 	lookupTimeSig:mean 	3.3181818181818
scalar Network.dyn_peer[108] 	lookupStabilitySig:mean 	0.92468976995654
scalar Network.dyn_peer[108] 	lookupHopsSig:mean 	32.272727272727
scalar Network.dyn_peer[109] 	lookupTimeSig:mean 	3.6705882352941
scalar Network.dyn_peer[109] 	lookupStabilitySig:mean 	0.93588770511012
scalar Network.dyn_peer[109] 	lookupHopsSig:mean 	35.764705882353
scalar Network.dyn_peer[110] 	lookupTimeSig:mean 	3.055
scalar Network.dyn_peer[110] 	lookupStabilitySig:mean 	0.95401873511728
scalar Network.dyn_peer[110] 	lookupHopsSig:mean 	29.6
scalar Network.dyn_peer[111] 	lookupTimeSig:mean 	3.747619047619
scalar Network.dyn_peer[111] 	lookupStabilitySig:mean 	0.95198061499035
scalar Network.dyn_peer[111] 	lookupHopsSig:mean 	36.52380952381
scalar Network.dyn_peer[112] 	lookupTimeSig:mean 	2.73125
scalar Network.dyn_peer[112] 	lookupStabilitySig:mean 	0.93244635371957
scalar Network.dyn_peer[112] 	lookupHopsSig:mean 	26.375
scalar Network.dyn_peer[113] 	lookupTimeSig:mean 	3.495652173913
scalar Network.dyn_peer[113] 	lookupStabilitySig:mean 	0.95002035210516
scalar Network.dyn_peer[113] 	lookupHopsSig:mean 	34
scalar Network.dyn_peer[114] 	lookupTimeSig:mean 	2.755
scalar Network.dyn_peer[114] 	lookupStabilitySig:mean 	0.94859477175632
scalar Network.dyn_peer[114] 	lookupHopsSig:mean 	26.6
scalar Network.dyn_peer[115] 	lookupTimeSig:mean 	4.0086956521739
scalar Network.dyn_peer[115] 	lookupStabilitySig:mean 	0.95393524698043
scalar Network.dyn_peer[115] 	lookupHopsSig:mean 	39.130434782609
scalar Network.dyn_peer[116] 	lookupTimeSig:mean 	2.7136363636364
scalar Network.dyn_peer[116] 	lookupStabilitySig:mean 	0.95778477129484
scalar Network.dyn_peer[116] 	lookupHopsSig:mean 	26.181818181818
scalar Network.dyn_peer[117] 	lookupTimeSig:mean 	3.745
scalar Network.dyn_peer[117] 	lookupStabilitySig:mean 	0.95090690005454
scalar Network.dyn_peer[117] 	lookupHopsSig:mean 	36.5
scalar Network.dyn_peer[118] 	lookupTimeSig:mean 	4.0714285714286
scalar Network.dyn_peer[118] 	lookupStabilitySig:mean 	0.92053064424545
scalar Network.dyn_peer[118] 	lookupHopsSig:mean 	39.785714285714
scalar Network.dyn_peer[119] 	lookupTimeSig:mean 	3.4380952380952
scalar Network.dyn_peer[119] 	lookupStabilitySig:mean 	0.94674510320294
scalar Network.dyn_peer[119] 	lookupHopsSig:mean 	33.428571428571
scalar Network.dyn_peer[120] 	lookupTimeSig:mean 	2.7333333333333
scalar Network.dyn_peer[120] 	lookupStabilitySig:mean 	0.94025458114532
scalar Network.dyn_peer[120] 	lookupHopsSig:mean 	26.4
scalar Network.dyn_peer[121] 	lookupTimeSig:mean 	1.6166666666667
scalar Network.dyn_peer[121] 	lookupStabilitySig:mean 	0.91681234072894
scalar Network.dyn_peer[121] 	lookupHopsSig:mean 	15.25
scalar Network.dyn_peer[122] 	lookupTimeSig:mean 	3.6111111111111
scalar Network.dyn_peer[122] 	lookupStabilitySig:mean 	0.94038741384348
scalar Network.dyn_peer[122] 	lookupHopsSig:mean 	35.166666666667
scalar Network.dyn_peer[123] 	lookupTimeSig:mean 	3.3541666666667
scalar Network.dyn_peer[123] 	lookupStabilitySig:mean 	0.95265602811317
scalar Network.dyn_peer[123] 	lookupHopsSig:mean 	32.583333333333
scalar Network.dyn_peer[124] 	lookupTimeSig:mean 	3.0689655172414
scalar Network.dyn_peer[124] 	lookupStabilitySig:mean 	0.96049649256346
scalar Network.dyn_peer[124] 	lookupHopsSig:mean 	29.724137931034
scalar Network.dyn_peer[125] 	lookupTimeSig:mean 	3.125
scalar Network.dyn_peer[125] 	lookupStabilitySig:mean 	0.94155917924218
scalar Network.dyn_peer[125] 	lookupHopsSig:mean 	30.3125
scalar Network.dyn_peer[126] 	lookupTimeSig:mean 	3.1928571428571
scalar Network.dyn_peer[126] 	lookupStabilitySig:mean 	0.93202558748557
scalar Network.dyn_peer[126] 	lookupHopsSig:mean 	31
scalar Network.dyn_peer[127] 	lookupTimeSig:mean 	4.0368421052632
scalar Network.dyn_peer[127] 	lookupStabilitySig:mean 	0.94338535108162
scalar Network.dyn_peer[127] 	lookupHopsSig:mean 	39.421052631579
scalar Network.dyn_peer[128] 	lookupTimeSig:mean 	3.6105263157895
scalar Network.dyn_peer[128] 	lookupStabilitySig:mean 	0.94518204050531
scalar Network.dyn_peer[128] 	lookupHopsSig:mean 	35.157894736842
scalar Network.dyn_peer[129] 	lookupTimeSig:mean 	2.4875
scalar Network.dyn_peer[129] 	lookupStabilitySig:mean 	0.93697808863362
scalar Network.dyn_peer[129] 	lookupHopsSig:mean 	23.9375
scalar Network.dyn_peer[130] 	lookupTimeSig:mean 	3.5666666666667
scalar Network.dyn_peer[130] 	lookupStabilitySig:mean 	0.95051951754084
scalar Network.dyn_peer[130] 	lookupHopsSig:mean 	34.714285714286
scalar Network.dyn_peer[131] 	lookupTimeSig:mean 	3.625
scalar Network.dyn_peer[131] 	lookupStabilitySig:mean 	0.95342692532965
scalar Network.dyn_peer[131] 	lookupHopsSig:mean 	35.291666666667
scalar Network.dyn_peer[132] 	lookupTimeSig:mean 	3.8058823529412
scalar Network.dyn_peer[132] 	lookupStabilitySig:mean 	0.97280799122938
scalar Network.dyn_peer[132] 	lookupHopsSig:mean 	37.088235294118
scalar Network.dyn_peer[133] 	lookupTimeSig:mean 	3.7923076923077
scalar Network.dyn_peer[133] 	lookupStabilitySig:mean 	0.93966751588652
scalar Network.dyn_peer[133] 	lookupHopsSig:mean 	37
scalar Network.dyn_peer[134] 	lookupTimeSig:mean 	2.6826086956522
scalar Network.dyn_peer[134] 	lookupStabilitySig:mean 	0.95908918465569
scalar Network.dyn_peer[134] 	lookupHopsSig:mean 	25.869565217391
scalar Network.dyn_peer[135] 	lookupTimeSig:mean 	3.4863636363636
scalar Network.dyn_peer[135] 	lookupStabilitySig:mean 	0.96384869760897
scalar Network.dyn_peer[135] 	lookupHopsSig:mean 	33.909090909091
scalar Network.dyn_peer[136] 	lookupTimeSig:mean 	4.356
scalar Network.dyn_peer[136] 	lookupStabilitySig:mean 	0.95560274439864
scalar Network.dyn_peer[136] 	lookupHopsSig:mean 	42.6
scalar Network.dyn_peer[137] 	lookupTimeSig:mean 	2.6142857142857
scalar Network.dyn_peer[137] 	lookupStabilitySig:mean 	0.95972483088865
scalar Network.dyn_peer[137] 	lookupHopsSig:mean 	25.178571428571
scalar Network.dyn_peer[138] 	lookupTimeSig:mean 	2.5846153846154
scalar Network.dyn_peer[138] 	lookupStabilitySig:mean 	0.94156528049364
scalar Network.dyn_peer[138] 	lookupHopsSig:mean 	24.923076923077
scalar Network.dyn_peer[139] 	lookupTimeSig:mean 	3.175
scalar Network.dyn_peer[139] 	lookupStabilitySig:mean 	0.96486819245911
scalar Network.dyn_peer[139] 	lookupHopsSig:mean 	30.791666666667
scalar Network.dyn_peer[140] 	lookupTimeSig:mean 	4.0925925925926
scalar Network.dyn_peer[140] 	lookupStabilitySig:mean 	0.95928833196457
scalar Network.dyn_peer[140] 	lookupHopsSig:mean 	39.962962962963
scalar Network.dyn_peer[141] 	lookupTimeSig:mean 	3.2772727272727
scalar Network.dyn_peer[141] 	lookupStabilitySig:mean 	0.95125019977885
scalar Network.dyn_peer[141] 	lookupHopsSig:mean 	31.818181818182
scalar Network.dyn_peer[142] 	lookupTimeSig:mean 	4.03125
scalar Network.dyn_peer[142] 	lookupStabilitySig:mean 	0.968293605707
scalar Network.dyn_peer[142] 	lookupHopsSig:mean 	39.34375
scalar Network.dyn_peer[143] 	lookupTimeSig:mean 	4.1347826086957
scalar Network.dyn_peer[143] 	lookupStabilitySig:mean 	0.95858727245207
scalar Network.dyn_peer[143] 	lookupHopsSig:mean 	40.391304347826
scalar Network.dyn_peer[144] 	lookupTimeSig:mean 	3.7090909090909
scalar Network.dyn_peer[144] 	lookupStabilitySig:mean 	0.95411643940447
scalar Network.dyn_peer[144] 	lookupHopsSig:mean 	36.136363636364
scalar Network.dyn_peer[145] 	lookupTimeSig:mean 	3.075
scalar Network.dyn_peer[145] 	lookupStabilitySig:mean 	0.96068483644437
scalar Network.dyn_peer[145] 	lookupHopsSig:mean 	29.791666666667
scalar Network.dyn_peer[146] 	lookupTimeSig:mean 	4.2428571428571
scalar Network.dyn_peer[146] 	lookupStabilitySig:mean 	0.94264518143609
scalar Network.dyn_peer[146] 	lookupHopsSig:mean 	41.5
scalar Network.dyn_peer[147] 	lookupTimeSig:mean 	4.1434782608696
scalar Network.dyn_peer[147] 	lookupStabilitySig:mean 	0.95545642387689
scalar Network.dyn_peer[147] 	lookupHopsSig:mean 	40.478260869565
scalar Network.dyn_peer[148] 	lookupTimeSig:mean 	3.5769230769231
scalar Network.dyn_peer[148] 	lookupStabilitySig:mean 	0.964691588279
scalar Network.dyn_peer[148] 	lookupHopsSig:mean 	34.807692307692
scalar Network.dyn_peer[149] 	lookupTimeSig:mean 	4.4
scalar Network.dyn_peer[149] 	lookupStabilitySig:mean 	0.95504672967059
scalar Network.dyn_peer[149] 	lookupHopsSig:mean 	43.04347826087
scalar Network.dyn_peer[150] 	lookupTimeSig:mean 	4.12
scalar Network.dyn_peer[150] 	lookupStabilitySig:mean 	0.9580564503558
scalar Network.dyn_peer[150] 	lookupHopsSig:mean 	40.25
scalar Network.dyn_peer[151] 	lookupTimeSig:mean 	2.805
scalar Network.dyn_peer[151] 	lookupStabilitySig:mean 	0.94894397195894
scalar Network.dyn_peer[151] 	lookupHopsSig:mean 	27.1
scalar Network.dyn_peer[152] 	lookupTimeSig:mean 	2.8125
scalar Network.dyn_peer[152] 	lookupStabilitySig:mean 	0.94449842229369
scalar Network.dyn_peer[152] 	lookupHopsSig:mean 	27.1875
scalar Network.dyn_peer[153] 	lookupTimeSig:mean 	3.74
scalar Network.dyn_peer[153] 	lookupStabilitySig:mean 	0.95893157417886
scalar Network.dyn_peer[153] 	lookupHopsSig:mean 	36.45
scalar Network.dyn_peer[154] 	lookupTimeSig:mean 	3.5296296296296
scalar Network.dyn_peer[154] 	lookupStabilitySig:mean 	0.96727533172385
scalar Network.dyn_peer[154] 	lookupHopsSig:mean 	34.333333333333
scalar Network.dyn_peer[155] 	lookupTimeSig:mean 	3.0157894736842
scalar Network.dyn_peer[155] 	lookupStabilitySig:mean 	0.95258127953122
scalar Network.dyn_peer[155] 	lookupHopsSig:mean 	29.210526315789
scalar Network.dyn_peer[156] 	lookupTimeSig:mean 	3.53125
scalar Network.dyn_peer[156] 	lookupStabilitySig:mean 	0.9660862306373
scalar Network.dyn_peer[156] 	lookupHopsSig:mean 	34.34375
scalar Network.dyn_peer[157] 	lookupTimeSig:mean 	2.6058823529412
scalar Network.dyn_peer[157] 	lookupStabilitySig:mean 	0.95362809583928
scalar Network.dyn_peer[157] 	lookupHopsSig:mean 	25.117647058824
scalar Network.dyn_peer[158] 	lookupTimeSig:mean 	3.3238095238095
scalar Network.dyn_peer[158] 	lookupStabilitySig:mean 	0.95051882244159
scalar Network.dyn_peer[158] 	lookupHopsSig:mean 	32.285714285714
scalar Network.dyn_peer[159] 	lookupTimeSig:mean 	2.1315789473684
scalar Network.dyn_peer[159] 	lookupStabilitySig:mean 	0.9559743117394
scalar Network.dyn_peer[159] 	lookupHopsSig:mean 	20.368421052632
scalar Network.dyn_peer[160] 	lookupTimeSig:mean 	2.7052631578947
scalar Network.dyn_peer[160] 	lookupStabilitySig:mean 	0.95178964814955
scalar Network.dyn_peer[160] 	lookupHopsSig:mean 	26.105263157895
scalar Network.dyn_peer[161] 	lookupTimeSig:mean 	2.6285714285714
scalar Network.dyn_peer[161] 	lookupStabilitySig:mean 	0.95765808517379
scalar Network.dyn_peer[161] 	lookupHopsSig:mean 	25.333333333333
scalar Network.dyn_peer[162] 	lookupTimeSig:mean 	2.7318181818182
scalar Network.dyn_peer[162] 	lookupStabilitySig:mean 	0.95128884477626
scalar Network.dyn_peer[162] 	lookupHopsSig:mean 	26.363636363636
scalar Network.dyn_peer[163] 	lookupTimeSig:mean 	3.6363636363636
scalar Network.dyn_peer[163] 	lookupStabilitySig:mean 	0.95454718748277
scalar Network.dyn_peer[163] 	lookupHopsSig:mean 	35.409090909091
scalar Network.dyn_peer[164] 	lookupTimeSig:mean 	3.0458333333333
scalar Network.dyn_peer[164] 	lookupStabilitySig:mean 	0.961351665382
scalar Network.dyn_peer[164] 	lookupHopsSig:mean 	29.5
scalar Network.dyn_peer[165] 	lookupTimeSig:mean 	3.32
scalar Network.dyn_peer[165] 	lookupStabilitySig:mean 	0.96208269096911
scalar Network.dyn_peer[165] 	lookupHopsSig:mean 	32.24
scalar Network.dyn_peer[166] 	lookupTimeSig:mean 	3.4416666666667
scalar Network.dyn_peer[166] 	lookupStabilitySig:mean 	0.95749207135911
scalar Network.dyn_peer[166] 	lookupHopsSig:mean 	33.458333333333
scalar Network.dyn_peer[167] 	lookupTimeSig:mean 	2.9645161290323
scalar Network.dyn_peer[167] 	lookupStabilitySig:mean 	0.97378713674393
scalar Network.dyn_peer[167] 	lookupHopsSig:mean 	28.677419354839
scalar Network.dyn_peer[168] 	lookupTimeSig:mean 	4.06875
scalar Network.dyn_peer[168] 	lookupStabilitySig:mean 	0.95517057600591
scalar Network.dyn_peer[168] 	lookupHopsSig:mean 	39.75
scalar Network.dyn_peer[169] 	lookupTimeSig:mean 	2.65
scalar Network.dyn_peer[169] 	lookupStabilitySig:mean 	0.95900862393319
scalar Network.dyn_peer[169] 	lookupHopsSig:mean 	25.55
scalar Network.dyn_peer[170] 	lookupTimeSig:mean 	2.7444444444444
scalar Network.dyn_peer[170] 	lookupStabilitySig:mean 	0.96107286600293
scalar Network.dyn_peer[170] 	lookupHopsSig:mean 	26.5
scalar Network.dyn_peer[171] 	lookupTimeSig:mean 	4.17
scalar Network.dyn_peer[171] 	lookupStabilitySig:mean 	0.95029431621078
scalar Network.dyn_peer[171] 	lookupHopsSig:mean 	40.75
scalar Network.dyn_peer[172] 	lookupTimeSig:mean 	2.9238095238095
scalar Network.dyn_peer[172] 	lookupStabilitySig:mean 	0.9593588846647
scalar Network.dyn_peer[172] 	lookupHopsSig:mean 	28.285714285714
scalar Network.dyn_peer[173] 	lookupTimeSig:mean 	3.2631578947368
scalar Network.dyn_peer[173] 	lookupStabilitySig:mean 	0.95479593550982
scalar Network.dyn_peer[173] 	lookupHopsSig:mean 	31.684210526316
scalar Network.dyn_peer[174] 	lookupTimeSig:mean 	4.68125
scalar Network.dyn_peer[174] 	lookupStabilitySig:mean 	0.95802844021819
scalar Network.dyn_peer[174] 	lookupHopsSig:mean 	45.875
scalar Network.dyn_peer[175] 	lookupTimeSig:mean 	2.7666666666667
scalar Network.dyn_peer[175] 	lookupStabilitySig:mean 	0.96202084488635
scalar Network.dyn_peer[175] 	lookupHopsSig:mean 	26.714285714286
scalar Network.dyn_peer[176] 	lookupTimeSig:mean 	3.0944444444444
scalar Network.dyn_peer[176] 	lookupStabilitySig:mean 	0.95284132730578
scalar Network.dyn_peer[176] 	lookupHopsSig:mean 	30
scalar Network.dyn_peer[177] 	lookupTimeSig:mean 	1.9611111111111
scalar Network.dyn_peer[177] 	lookupStabilitySig:mean 	0.96236320718243
scalar Network.dyn_peer[177] 	lookupHopsSig:mean 	18.666666666667
scalar Network.dyn_peer[178] 	lookupTimeSig:mean 	2.5769230769231
scalar Network.dyn_peer[178] 	lookupStabilitySig:mean 	0.94294142963078
scalar Network.dyn_peer[178] 	lookupHopsSig:mean 	24.846153846154
scalar Network.dyn_peer[179] 	lookupTimeSig:mean 	3.1045454545455
scalar Network.dyn_peer[179] 	lookupStabilitySig:mean 	0.958889619061
scalar Network.dyn_peer[179] 	lookupHopsSig:mean 	30.090909090909
scalar Network.dyn_peer[180] 	lookupTimeSig:mean 	2.1928571428571
scalar Network.dyn_peer[180] 	lookupStabilitySig:mean 	0.94905318842003
scalar Network.dyn_peer[180] 	lookupHopsSig:mean 	21
scalar Network.dyn_peer[181] 	lookupTimeSig:mean 	2.9733333333333
scalar Network.dyn_peer[181] 	lookupStabilitySig:mean 	0.94256537216716
scalar Network.dyn_peer[181] 	lookupHopsSig:mean 	28.8
scalar Network.dyn_peer[182] 	lookupTimeSig:mean 	4.7631578947368
scalar Network.dyn_peer[182] 	lookupStabilitySig:mean 	0.95143171464779
scalar Network.dyn_peer[182] 	lookupHopsSig:mean 	46.684210526316
scalar Network.dyn_peer[183] 	lookupTimeSig:mean 	3.1884615384615
scalar Network.dyn_peer[183] 	lookupStabilitySig:mean 	0.96135195054544
scalar Network.dyn_peer[183] 	lookupHopsSig:mean 	30.923076923077
scalar Network.dyn_peer[184] 	lookupTimeSig:mean 	2.1529411764706
scalar Network.dyn_peer[184] 	lookupStabilitySig:mean 	0.96593577007982
scalar Network.dyn_peer[184] 	lookupHopsSig:mean 	20.588235294118
scalar Network.dyn_peer[185] 	lookupTimeSig:mean 	4.0526315789474
scalar Network.dyn_peer[185] 	lookupStabilitySig:mean 	0.95298945380522
scalar Network.dyn_peer[185] 	lookupHopsSig:mean 	39.578947368421
scalar Network.dyn_peer[186] 	lookupTimeSig:mean 	3.1230769230769
scalar Network.dyn_peer[186] 	lookupStabilitySig:mean 	0.96863483395786
scalar Network.dyn_peer[186] 	lookupHopsSig:mean 	30.269230769231
scalar Network.dyn_peer[187] 	lookupTimeSig:mean 	4.4789473684211
scalar Network.dyn_peer[187] 	lookupStabilitySig:mean 	0.96007003963582
scalar Network.dyn_peer[187] 	lookupHopsSig:mean 	43.842105263158
scalar Network.dyn_peer[188] 	lookupTimeSig:mean 	4.6222222222222
scalar Network.dyn_peer[188] 	lookupStabilitySig:mean 	0.95798166246257
scalar Network.dyn_peer[188] 	lookupHopsSig:mean 	45.277777777778
scalar Network.dyn_peer[189] 	lookupTimeSig:mean 	3.2666666666667
scalar Network.dyn_peer[189] 	lookupStabilitySig:mean 	0.97052926498603
scalar Network.dyn_peer[189] 	lookupHopsSig:mean 	31.703703703704
scalar Network.dyn_peer[190] 	lookupTimeSig:mean 	4.15
scalar Network.dyn_peer[190] 	lookupStabilitySig:mean 	0.95098606766987
scalar Network.dyn_peer[190] 	lookupHopsSig:mean 	40.5625
scalar Network.dyn_peer[191] 	lookupTimeSig:mean 	3.8538461538462
scalar Network.dyn_peer[191] 	lookupStabilitySig:mean 	0.97233246250723
scalar Network.dyn_peer[191] 	lookupHopsSig:mean 	37.576923076923
scalar Network.dyn_peer[192] 	lookupTimeSig:mean 	3.39
scalar Network.dyn_peer[192] 	lookupStabilitySig:mean 	0.95965229391586
scalar Network.dyn_peer[192] 	lookupHopsSig:mean 	32.95
scalar Network.dyn_peer[193] 	lookupTimeSig:mean 	3.31
scalar Network.dyn_peer[193] 	lookupStabilitySig:mean 	0.95579269020818
scalar Network.dyn_peer[193] 	lookupHopsSig:mean 	32.15
scalar Network.dyn_peer[194] 	lookupTimeSig:mean 	4.2222222222222
scalar Network.dyn_peer[194] 	lookupStabilitySig:mean 	0.95871392844452
scalar Network.dyn_peer[194] 	lookupHopsSig:mean 	41.277777777778
scalar Network.dyn_peer[195] 	lookupTimeSig:mean 	3.7259259259259
scalar Network.dyn_peer[195] 	lookupStabilitySig:mean 	0.96426796665657
scalar Network.dyn_peer[195] 	lookupHopsSig:mean 	36.296296296296
scalar Network.dyn_peer[196] 	lookupTimeSig:mean 	3.2294117647059
scalar Network.dyn_peer[196] 	lookupStabilitySig:mean 	0.9550437800148
scalar Network.dyn_peer[196] 	lookupHopsSig:mean 	31.352941176471
scalar Network.dyn_peer[197] 	lookupTimeSig:mean 	2.38
scalar Network.dyn_peer[197] 	lookupStabilitySig:mean 	0.96194430964068
scalar Network.dyn_peer[197] 	lookupHopsSig:mean 	22.84
scalar Network.dyn_peer[198] 	lookupTimeSig:mean 	3.3923076923077
scalar Network.dyn_peer[198] 	lookupStabilitySig:mean 	0.94915528061728
scalar Network.dyn_peer[198] 	lookupHopsSig:mean 	33
scalar Network.dyn_peer[199] 	lookupTimeSig:mean 	3.5909090909091
scalar Network.dyn_peer[199] 	lookupStabilitySig:mean 	0.96261823758356
scalar Network.dyn_peer[199] 	lookupHopsSig:mean 	34.954545454545
scalar Network.dyn_peer[200] 	lookupTimeSig:mean 	4.7857142857143
scalar Network.dyn_peer[200] 	lookupStabilitySig:mean 	0.94752896656116
scalar Network.dyn_peer[200] 	lookupHopsSig:mean 	46.928571428571
scalar Network.dyn_peer[201] 	lookupTimeSig:mean 	2.18
scalar Network.dyn_peer[201] 	lookupStabilitySig:mean 	0.9469500687439
scalar Network.dyn_peer[201] 	lookupHopsSig:mean 	20.9
scalar Network.dyn_peer[202] 	lookupTimeSig:mean 	2.575
scalar Network.dyn_peer[202] 	lookupStabilitySig:mean 	0.96485444562859
scalar Network.dyn_peer[202] 	lookupHopsSig:mean 	24.8125
scalar Network.dyn_peer[203] 	lookupTimeSig:mean 	3.6944444444444
scalar Network.dyn_peer[203] 	lookupStabilitySig:mean 	0.95520891265349
scalar Network.dyn_peer[203] 	lookupHopsSig:mean 	36
scalar Network.dyn_peer[204] 	lookupTimeSig:mean 	2.3833333333333
scalar Network.dyn_peer[204] 	lookupStabilitySig:mean 	0.94728022256944
scalar Network.dyn_peer[204] 	lookupHopsSig:mean 	22.916666666667
scalar Network.dyn_peer[205] 	lookupTimeSig:mean 	3.1161290322581
scalar Network.dyn_peer[205] 	lookupStabilitySig:mean 	0.97420808638074
scalar Network.dyn_peer[205] 	lookupHopsSig:mean 	30.193548387097
scalar Network.dyn_peer[206] 	lookupTimeSig:mean 	2.9357142857143
scalar Network.dyn_peer[206] 	lookupStabilitySig:mean 	0.96814556271836
scalar Network.dyn_peer[206] 	lookupHopsSig:mean 	28.392857142857
scalar Network.dyn_peer[207] 	lookupTimeSig:mean 	3.0529411764706
scalar Network.dyn_peer[207] 	lookupStabilitySig:mean 	0.95498422163484
scalar Network.dyn_peer[207] 	lookupHopsSig:mean 	29.588235294118
scalar Network.dyn_peer[208] 	lookupTimeSig:mean 	4.96
scalar Network.dyn_peer[208] 	lookupStabilitySig:mean 	0.97126317056827
scalar Network.dyn_peer[208] 	lookupHopsSig:mean 	48.666666666667
scalar Network.dyn_peer[209] 	lookupTimeSig:mean 	5.6764705882353
scalar Network.dyn_peer[209] 	lookupStabilitySig:mean 	0.97162954127142
scalar Network.dyn_peer[209] 	lookupHopsSig:mean 	55.823529411765
scalar Network.dyn_peer[210] 	lookupTimeSig:mean 	4.63125
scalar Network.dyn_peer[210] 	lookupStabilitySig:mean 	0.95847082269029
scalar Network.dyn_peer[210] 	lookupHopsSig:mean 	45.375
scalar Network.dyn_peer[211] 	lookupTimeSig:mean 	3.5380952380952
scalar Network.dyn_peer[211] 	lookupStabilitySig:mean 	0.96965479866291
scalar Network.dyn_peer[211] 	lookupHopsSig:mean 	34.428571428571
scalar Network.dyn_peer[212] 	lookupTimeSig:mean 	3.64
scalar Network.dyn_peer[212] 	lookupStabilitySig:mean 	0.97296214837581
scalar Network.dyn_peer[212] 	lookupHopsSig:mean 	35.44
scalar Network.dyn_peer[213] 	lookupTimeSig:mean 	2.9111111111111
scalar Network.dyn_peer[213] 	lookupStabilitySig:mean 	0.97434646060207
scalar Network.dyn_peer[213] 	lookupHopsSig:mean 	28.148148148148
scalar Network.dyn_peer[214] 	lookupTimeSig:mean 	3.6
scalar Network.dyn_peer[214] 	lookupStabilitySig:mean 	0.96605659710622
scalar Network.dyn_peer[214] 	lookupHopsSig:mean 	35.041666666667
scalar Network.dyn_peer[215] 	lookupTimeSig:mean 	4.3631578947368
scalar Network.dyn_peer[215] 	lookupStabilitySig:mean 	0.96224615399383
scalar Network.dyn_peer[215] 	lookupHopsSig:mean 	42.684210526316
scalar Network.dyn_peer[216] 	lookupTimeSig:mean 	3.1
scalar Network.dyn_peer[216] 	lookupStabilitySig:mean 	0.96401103209847
scalar Network.dyn_peer[216] 	lookupHopsSig:mean 	30.076923076923
scalar Network.dyn_peer[217] 	lookupTimeSig:mean 	3.375
scalar Network.dyn_peer[217] 	lookupStabilitySig:mean 	0.97901744046248
scalar Network.dyn_peer[217] 	lookupHopsSig:mean 	32.78125
scalar Network.dyn_peer[218] 	lookupTimeSig:mean 	3.6176470588235
scalar Network.dyn_peer[218] 	lookupStabilitySig:mean 	0.95066086926004
scalar Network.dyn_peer[218] 	lookupHopsSig:mean 	35.235294117647
scalar Network.dyn_peer[219] 	lookupTimeSig:mean 	3.0769230769231
scalar Network.dyn_peer[219] 	lookupStabilitySig:mean 	0.96801240446243
scalar Network.dyn_peer[219] 	lookupHopsSig:mean 	29.807692307692
scalar Network.dyn_peer[220] 	lookupTimeSig:mean 	3.4863636363636
scalar Network.dyn_peer[220] 	lookupStabilitySig:mean 	0.96677335237407
scalar Network.dyn_peer[220] 	lookupHopsSig:mean 	33.909090909091
scalar Network.dyn_peer[221] 	lookupTimeSig:mean 	2.8769230769231
scalar Network.dyn_peer[221] 	lookupStabilitySig:mean 	0.94313087966293
scalar Network.dyn_peer[221] 	lookupHopsSig:mean 	27.846153846154
scalar Network.dyn_peer[222] 	lookupTimeSig:mean 	3.0888888888889
scalar Network.dyn_peer[222] 	lookupStabilitySig:mean 	0.96938864226212
scalar Network.dyn_peer[222] 	lookupHopsSig:mean 	29.925925925926
scalar Network.dyn_peer[223] 	lookupTimeSig:mean 	3.0038461538462
scalar Network.dyn_peer[223] 	lookupStabilitySig:mean 	0.96596529631195
scalar Network.dyn_peer[223] 	lookupHopsSig:mean 	29.076923076923
scalar Network.dyn_peer[224] 	lookupTimeSig:mean 	3.5607142857143
scalar Network.dyn_peer[224] 	lookupStabilitySig:mean 	0.97097453301207
scalar Network.dyn_peer[224] 	lookupHopsSig:mean 	34.642857142857
scalar Network.dyn_peer[225] 	lookupTimeSig:mean 	3.9217391304348
scalar Network.dyn_peer[225] 	lookupStabilitySig:mean 	0.96611584101439
scalar Network.dyn_peer[225] 	lookupHopsSig:mean 	38.260869565217
scalar Network.dyn_peer[226] 	lookupTimeSig:mean 	4.2888888888889
scalar Network.dyn_peer[226] 	lookupStabilitySig:mean 	0.96680474922889
scalar Network.dyn_peer[226] 	lookupHopsSig:mean 	41.944444444444
scalar Network.dyn_peer[227] 	lookupTimeSig:mean 	2.5388888888889
scalar Network.dyn_peer[227] 	lookupStabilitySig:mean 	0.95674601007098
scalar Network.dyn_peer[227] 	lookupHopsSig:mean 	24.444444444444
scalar Network.dyn_peer[228] 	lookupTimeSig:mean 	2.95
scalar Network.dyn_peer[228] 	lookupStabilitySig:mean 	0.95090878436652
scalar Network.dyn_peer[228] 	lookupHopsSig:mean 	28.583333333333
scalar Network.dyn_peer[229] 	lookupTimeSig:mean 	2.95
scalar Network.dyn_peer[229] 	lookupStabilitySig:mean 	0.95581283792853
scalar Network.dyn_peer[229] 	lookupHopsSig:mean 	28.571428571429
scalar Network.dyn_peer[230] 	lookupTimeSig:mean 	2.8
scalar Network.dyn_peer[230] 	lookupStabilitySig:mean 	0.94404498404927
scalar Network.dyn_peer[230] 	lookupHopsSig:mean 	27.111111111111
scalar Network.dyn_peer[231] 	lookupTimeSig:mean 	3.64
scalar Network.dyn_peer[231] 	lookupStabilitySig:mean 	0.96368888394907
scalar Network.dyn_peer[231] 	lookupHopsSig:mean 	35.44
scalar Network.dyn_peer[232] 	lookupTimeSig:mean 	2.15
scalar Network.dyn_peer[232] 	lookupStabilitySig:mean 	0.94568923541478
scalar Network.dyn_peer[232] 	lookupHopsSig:mean 	20.571428571429
scalar Network.dyn_peer[233] 	lookupTimeSig:mean 	3.8888888888889
scalar Network.dyn_peer[233] 	lookupStabilitySig:mean 	0.96890120026526
scalar Network.dyn_peer[233] 	lookupHopsSig:mean 	37.944444444444
scalar Network.dyn_peer[234] 	lookupTimeSig:mean 	2.0142857142857
scalar Network.dyn_peer[234] 	lookupStabilitySig:mean 	0.96465621205945
scalar Network.dyn_peer[234] 	lookupHopsSig:mean 	19.214285714286
scalar Network.dyn_peer[235] 	lookupTimeSig:mean 	3.7541666666667
scalar Network.dyn_peer[235] 	lookupStabilitySig:mean 	0.96413854096318
scalar Network.dyn_peer[235] 	lookupHopsSig:mean 	36.583333333333
scalar Network.dyn_peer[236] 	lookupTimeSig:mean 	3.4290322580645
scalar Network.dyn_peer[236] 	lookupStabilitySig:mean 	0.97660740315464
scalar Network.dyn_peer[236] 	lookupHopsSig:mean 	33.322580645161
scalar Network.dyn_peer[237] 	lookupTimeSig:mean 	3.835
scalar Network.dyn_peer[237] 	lookupStabilitySig:mean 	0.97020820956677
scalar Network.dyn_peer[237] 	lookupHopsSig:mean 	37.4
scalar Network.dyn_peer[238] 	lookupTimeSig:mean 	4.1666666666667
scalar Network.dyn_peer[238] 	lookupStabilitySig:mean 	0.96810368520932
scalar Network.dyn_peer[238] 	lookupHopsSig:mean 	40.722222222222
scalar Network.dyn_peer[239] 	lookupTimeSig:mean 	3.0791666666667
scalar Network.dyn_peer[239] 	lookupStabilitySig:mean 	0.96461833830108
scalar Network.dyn_peer[239] 	lookupHopsSig:mean 	29.833333333333
scalar Network.dyn_peer[240] 	lookupTimeSig:mean 	2.8388888888889
scalar Network.dyn_peer[240] 	lookupStabilitySig:mean 	0.97290815775179
scalar Network.dyn_peer[240] 	lookupHopsSig:mean 	27.444444444444
scalar Network.dyn_peer[241] 	lookupTimeSig:mean 	3.0033333333333
scalar Network.dyn_peer[241] 	lookupStabilitySig:mean 	0.97346447449721
scalar Network.dyn_peer[241] 	lookupHopsSig:mean 	29.066666666667
scalar Network.dyn_peer[242] 	lookupTimeSig:mean 	3.7307692307692
scalar Network.dyn_peer[242] 	lookupStabilitySig:mean 	0.95466584312873
scalar Network.dyn_peer[242] 	lookupHopsSig:mean 	36.384615384615
scalar Network.dyn_peer[243] 	lookupTimeSig:mean 	3.26
scalar Network.dyn_peer[243] 	lookupStabilitySig:mean 	0.97016619917005
scalar Network.dyn_peer[243] 	lookupHopsSig:mean 	31.64
scalar Network.dyn_peer[244] 	lookupTimeSig:mean 	2.5285714285714
scalar Network.dyn_peer[244] 	lookupStabilitySig:mean 	0.90924641636333
scalar Network.dyn_peer[244] 	lookupHopsSig:mean 	24.428571428571
scalar Network.dyn_peer[245] 	lookupTimeSig:mean 	3.5227272727273
scalar Network.dyn_peer[245] 	lookupStabilitySig:mean 	0.96348680790768
scalar Network.dyn_peer[245] 	lookupHopsSig:mean 	34.272727272727
scalar Network.dyn_peer[246] 	lookupTimeSig:mean 	3.0166666666667
scalar Network.dyn_peer[246] 	lookupStabilitySig:mean 	0.95662171389752
scalar Network.dyn_peer[246] 	lookupHopsSig:mean 	29.222222222222
scalar Network.dyn_peer[247] 	lookupTimeSig:mean 	2.9758620689655
scalar Network.dyn_peer[247] 	lookupStabilitySig:mean 	0.9729744852932
scalar Network.dyn_peer[247] 	lookupHopsSig:mean 	28.793103448276
scalar Network.dyn_peer[248] 	lookupTimeSig:mean 	3.32
scalar Network.dyn_peer[248] 	lookupStabilitySig:mean 	0.96405130305017
scalar Network.dyn_peer[248] 	lookupHopsSig:mean 	32.266666666667
scalar Network.dyn_peer[249] 	lookupTimeSig:mean 	3.2
scalar Network.dyn_peer[249] 	lookupStabilitySig:mean 	0.94023519102484
scalar Network.dyn_peer[249] 	lookupHopsSig:mean 	31.090909090909
scalar Network.dyn_peer[250] 	lookupTimeSig:mean 	3.325
scalar Network.dyn_peer[250] 	lookupStabilitySig:mean 	0.96427198550664
scalar Network.dyn_peer[250] 	lookupHopsSig:mean 	32.3
scalar Network.dyn_peer[251] 	lookupTimeSig:mean 	3.2631578947368
scalar Network.dyn_peer[251] 	lookupStabilitySig:mean 	0.96542665816991
scalar Network.dyn_peer[251] 	lookupHopsSig:mean 	31.684210526316
scalar Network.dyn_peer[252] 	lookupTimeSig:mean 	4.6833333333333
scalar Network.dyn_peer[252] 	lookupStabilitySig:mean 	0.96306574574879
scalar Network.dyn_peer[252] 	lookupHopsSig:mean 	45.888888888889
scalar Network.dyn_peer[253] 	lookupTimeSig:mean 	2.8909090909091
scalar Network.dyn_peer[253] 	lookupStabilitySig:mean 	0.96334904012143
scalar Network.dyn_peer[253] 	lookupHopsSig:mean 	27.954545454545
scalar Network.dyn_peer[254] 	lookupTimeSig:mean 	4.7958333333333
scalar Network.dyn_peer[254] 	lookupStabilitySig:mean 	0.96803146436772
scalar Network.dyn_peer[254] 	lookupHopsSig:mean 	47
scalar Network.dyn_peer[255] 	lookupTimeSig:mean 	2.3066666666667
scalar Network.dyn_peer[255] 	lookupStabilitySig:mean 	0.95970726239805
scalar Network.dyn_peer[255] 	lookupHopsSig:mean 	22.133333333333
scalar Network.dyn_peer[256] 	lookupTimeSig:mean 	2.53
scalar Network.dyn_peer[256] 	lookupStabilitySig:mean 	0.94587262701243
scalar Network.dyn_peer[256] 	lookupHopsSig:mean 	24.4
scalar Network.dyn_peer[257] 	lookupTimeSig:mean 	3.44
scalar Network.dyn_peer[257] 	lookupStabilitySig:mean 	0.96857675736149
scalar Network.dyn_peer[257] 	lookupHopsSig:mean 	33.466666666667
scalar Network.dyn_peer[258] 	lookupTimeSig:mean 	3.8368421052632
scalar Network.dyn_peer[258] 	lookupStabilitySig:mean 	0.96396288491393
scalar Network.dyn_peer[258] 	lookupHopsSig:mean 	37.421052631579
scalar Network.dyn_peer[259] 	lookupTimeSig:mean 	4.375
scalar Network.dyn_peer[259] 	lookupStabilitySig:mean 	0.96419882930059
scalar Network.dyn_peer[259] 	lookupHopsSig:mean 	42.8125
scalar Network.dyn_peer[260] 	lookupTimeSig:mean 	4.0764705882353
scalar Network.dyn_peer[260] 	lookupStabilitySig:mean 	0.96947739158949
scalar Network.dyn_peer[260] 	lookupHopsSig:mean 	39.823529411765
scalar Network.dyn_peer[261] 	lookupTimeSig:mean 	3.2736842105263
scalar Network.dyn_peer[261] 	lookupStabilitySig:mean 	0.96213291364869
scalar Network.dyn_peer[261] 	lookupHopsSig:mean 	31.789473684211
scalar Network.dyn_peer[262] 	lookupTimeSig:mean 	4.3931034482759
scalar Network.dyn_peer[262] 	lookupStabilitySig:mean 	0.97276627678617
scalar Network.dyn_peer[262] 	lookupHopsSig:mean 	42.965517241379
scalar Network.dyn_peer[263] 	lookupTimeSig:mean 	2.88
scalar Network.dyn_peer[263] 	lookupStabilitySig:mean 	0.95448865513317
scalar Network.dyn_peer[263] 	lookupHopsSig:mean 	27.866666666667
scalar Network.dyn_peer[264] 	lookupTimeSig:mean 	3.1380952380952
scalar Network.dyn_peer[264] 	lookupStabilitySig:mean 	0.96763054571957
scalar Network.dyn_peer[264] 	lookupHopsSig:mean 	30.428571428571
scalar Network.dyn_peer[265] 	lookupTimeSig:mean 	2.4533333333333
scalar Network.dyn_peer[265] 	lookupStabilitySig:mean 	0.9750214019247
scalar Network.dyn_peer[265] 	lookupHopsSig:mean 	23.6
scalar Network.dyn_peer[266] 	lookupTimeSig:mean 	2.8357142857143
scalar Network.dyn_peer[266] 	lookupStabilitySig:mean 	0.95006767198044
scalar Network.dyn_peer[266] 	lookupHopsSig:mean 	27.428571428571
scalar Network.dyn_peer[267] 	lookupTimeSig:mean 	3.9791666666667
scalar Network.dyn_peer[267] 	lookupStabilitySig:mean 	0.96774541878646
scalar Network.dyn_peer[267] 	lookupHopsSig:mean 	38.833333333333
scalar Network.dyn_peer[268] 	lookupTimeSig:mean 	3.148
scalar Network.dyn_peer[268] 	lookupStabilitySig:mean 	0.97016670778859
scalar Network.dyn_peer[268] 	lookupHopsSig:mean 	30.52
scalar Network.dyn_peer[269] 	lookupTimeSig:mean 	2.8714285714286
scalar Network.dyn_peer[269] 	lookupStabilitySig:mean 	0.95983823877759
scalar Network.dyn_peer[269] 	lookupHopsSig:mean 	27.785714285714
scalar Network.dyn_peer[270] 	lookupTimeSig:mean 	3.76
scalar Network.dyn_peer[270] 	lookupStabilitySig:mean 	0.96625976271462
scalar Network.dyn_peer[270] 	lookupHopsSig:mean 	36.65
scalar Network.dyn_peer[271] 	lookupTimeSig:mean 	3.5153846153846
scalar Network.dyn_peer[271] 	lookupStabilitySig:mean 	0.96966413335087
scalar Network.dyn_peer[271] 	lookupHopsSig:mean 	34.192307692308
scalar Network.dyn_peer[272] 	lookupTimeSig:mean 	3.244
scalar Network.dyn_peer[272] 	lookupStabilitySig:mean 	0.96991991511546
scalar Network.dyn_peer[272] 	lookupHopsSig:mean 	31.48
scalar Network.dyn_peer[273] 	lookupTimeSig:mean 	2.3105263157895
scalar Network.dyn_peer[273] 	lookupStabilitySig:mean 	0.96449991082773
scalar Network.dyn_peer[273] 	lookupHopsSig:mean 	22.157894736842
scalar Network.dyn_peer[274] 	lookupTimeSig:mean 	2.7888888888889
scalar Network.dyn_peer[274] 	lookupStabilitySig:mean 	0.95719417360508
scalar Network.dyn_peer[274] 	lookupHopsSig:mean 	27
scalar Network.dyn_peer[275] 	lookupTimeSig:mean 	4.2178571428571
scalar Network.dyn_peer[275] 	lookupStabilitySig:mean 	0.97074208854714
scalar Network.dyn_peer[275] 	lookupHopsSig:mean 	41.214285714286
scalar Network.dyn_peer[276] 	lookupTimeSig:mean 	2.8
scalar Network.dyn_peer[276] 	lookupStabilitySig:mean 	0.97152055085539
scalar Network.dyn_peer[276] 	lookupHopsSig:mean 	27.052631578947
scalar Network.dyn_peer[277] 	lookupTimeSig:mean 	3.3473684210526
scalar Network.dyn_peer[277] 	lookupStabilitySig:mean 	0.9712842508452
scalar Network.dyn_peer[277] 	lookupHopsSig:mean 	32.526315789474
scalar Network.dyn_peer[278] 	lookupTimeSig:mean 	3.5631578947368
scalar Network.dyn_peer[278] 	lookupStabilitySig:mean 	0.96299523128638
scalar Network.dyn_peer[278] 	lookupHopsSig:mean 	34.684210526316
scalar Network.dyn_peer[279] 	lookupTimeSig:mean 	4.3608695652174
scalar Network.dyn_peer[279] 	lookupStabilitySig:mean 	0.96891883234797
scalar Network.dyn_peer[279] 	lookupHopsSig:mean 	42.652173913043
scalar Network.dyn_peer[280] 	lookupTimeSig:mean 	3.904347826087
scalar Network.dyn_peer[280] 	lookupStabilitySig:mean 	0.97153782618546
scalar Network.dyn_peer[280] 	lookupHopsSig:mean 	38.086956521739
scalar Network.dyn_peer[281] 	lookupTimeSig:mean 	3.4
scalar Network.dyn_peer[281] 	lookupStabilitySig:mean 	0.97730548414433
scalar Network.dyn_peer[281] 	lookupHopsSig:mean 	33.027027027027
scalar Network.dyn_peer[282] 	lookupTimeSig:mean 	3.836
scalar Network.dyn_peer[282] 	lookupStabilitySig:mean 	0.97757368217688
scalar Network.dyn_peer[282] 	lookupHopsSig:mean 	37.4
scalar Network.dyn_peer[283] 	lookupTimeSig:mean 	3.0928571428571
scalar Network.dyn_peer[283] 	lookupStabilitySig:mean 	0.95800599395963
scalar Network.dyn_peer[283] 	lookupHopsSig:mean 	30
scalar Network.dyn_peer[284] 	lookupTimeSig:mean 	2.3428571428571
scalar Network.dyn_peer[284] 	lookupStabilitySig:mean 	0.95445881384824
scalar Network.dyn_peer[284] 	lookupHopsSig:mean 	22.5
scalar Network.dyn_peer[285] 	lookupTimeSig:mean 	3.0857142857143
scalar Network.dyn_peer[285] 	lookupStabilitySig:mean 	0.97533706735287
scalar Network.dyn_peer[285] 	lookupHopsSig:mean 	29.904761904762
scalar Network.dyn_peer[286] 	lookupTimeSig:mean 	2.65
scalar Network.dyn_peer[286] 	lookupStabilitySig:mean 	0.97260779387822
scalar Network.dyn_peer[286] 	lookupHopsSig:mean 	25.541666666667
scalar Network.dyn_peer[287] 	lookupTimeSig:mean 	4.2631578947368
scalar Network.dyn_peer[287] 	lookupStabilitySig:mean 	0.9635507661212
scalar Network.dyn_peer[287] 	lookupHopsSig:mean 	41.684210526316
scalar Network.dyn_peer[288] 	lookupTimeSig:mean 	3.1714285714286
scalar Network.dyn_peer[288] 	lookupStabilitySig:mean 	0.97159259869451
scalar Network.dyn_peer[288] 	lookupHopsSig:mean 	30.761904761905
scalar Network.dyn_peer[289] 	lookupTimeSig:mean 	2.9304347826087
scalar Network.dyn_peer[289] 	lookupStabilitySig:mean 	0.97056149345134
scalar Network.dyn_peer[289] 	lookupHopsSig:mean 	28.347826086957
scalar Network.dyn_peer[290] 	lookupTimeSig:mean 	3.8518518518519
scalar Network.dyn_peer[290] 	lookupStabilitySig:mean 	0.96970843642743
scalar Network.dyn_peer[290] 	lookupHopsSig:mean 	37.555555555556
scalar Network.dyn_peer[291] 	lookupTimeSig:mean 	2.675
scalar Network.dyn_peer[291] 	lookupStabilitySig:mean 	0.96301832182507
scalar Network.dyn_peer[291] 	lookupHopsSig:mean 	25.8125
scalar Network.dyn_peer[292] 	lookupTimeSig:mean 	5.43125
scalar Network.dyn_peer[292] 	lookupStabilitySig:mean 	0.96103662427049
scalar Network.dyn_peer[292] 	lookupHopsSig:mean 	53.375
scalar Network.dyn_peer[293] 	lookupTimeSig:mean 	2.4733333333333
scalar Network.dyn_peer[293] 	lookupStabilitySig:mean 	0.95858310721815
scalar Network.dyn_peer[293] 	lookupHopsSig:mean 	23.8
scalar Network.dyn_peer[294] 	lookupTimeSig:mean 	3.71
scalar Network.dyn_peer[294] 	lookupStabilitySig:mean 	0.96919543091208
scalar Network.dyn_peer[294] 	lookupHopsSig:mean 	36.15
scalar Network.dyn_peer[295] 	lookupTimeSig:mean 	3.7875
scalar Network.dyn_peer[295] 	lookupStabilitySig:mean 	0.97698410676094
scalar Network.dyn_peer[295] 	lookupHopsSig:mean 	36.916666666667
scalar Network.dyn_peer[296] 	lookupTimeSig:mean 	3.2058823529412
scalar Network.dyn_peer[296] 	lookupStabilitySig:mean 	0.97223458778771
scalar Network.dyn_peer[296] 	lookupHopsSig:mean 	31.117647058824
scalar Network.dyn_peer[297] 	lookupTimeSig:mean 	3.3681818181818
scalar Network.dyn_peer[297] 	lookupStabilitySig:mean 	0.97468623405703
scalar Network.dyn_peer[297] 	lookupHopsSig:mean 	32.727272727273
scalar Network.dyn_peer[298] 	lookupTimeSig:mean 	4.2925925925926
scalar Network.dyn_peer[298] 	lookupStabilitySig:mean 	0.97348111481147
scalar Network.dyn_peer[298] 	lookupHopsSig:mean 	41.962962962963
scalar Network.dyn_peer[299] 	lookupTimeSig:mean 	3.65
scalar Network.dyn_peer[299] 	lookupStabilitySig:mean 	0.96379512459472
scalar Network.dyn_peer[299] 	lookupHopsSig:mean 	35.571428571429
scalar Network.dyn_peer[300] 	lookupTimeSig:mean 	5.0866666666667
scalar Network.dyn_peer[300] 	lookupStabilitySig:mean 	0.96416692650722
scalar Network.dyn_peer[300] 	lookupHopsSig:mean 	49.933333333333
scalar Network.dyn_peer[301] 	lookupTimeSig:mean 	2.88
scalar Network.dyn_peer[301] 	lookupStabilitySig:mean 	0.97154773679795
scalar Network.dyn_peer[301] 	lookupHopsSig:mean 	27.85
scalar Network.dyn_peer[302] 	lookupTimeSig:mean 	4.3666666666667
scalar Network.dyn_peer[302] 	lookupStabilitySig:mean 	0.96831048555517
scalar Network.dyn_peer[302] 	lookupHopsSig:mean 	42.722222222222
scalar Network.dyn_peer[303] 	lookupTimeSig:mean 	3.8117647058824
scalar Network.dyn_peer[303] 	lookupStabilitySig:mean 	0.968944289386
scalar Network.dyn_peer[303] 	lookupHopsSig:mean 	37.176470588235
scalar Network.dyn_peer[304] 	lookupTimeSig:mean 	3.3227272727273
scalar Network.dyn_peer[304] 	lookupStabilitySig:mean 	0.97437630615472
scalar Network.dyn_peer[304] 	lookupHopsSig:mean 	32.272727272727
scalar Network.dyn_peer[305] 	lookupTimeSig:mean 	3.7363636363636
scalar Network.dyn_peer[305] 	lookupStabilitySig:mean 	0.97270901005884
scalar Network.dyn_peer[305] 	lookupHopsSig:mean 	36.409090909091
scalar Network.dyn_peer[306] 	lookupTimeSig:mean 	3.1966666666667
scalar Network.dyn_peer[306] 	lookupStabilitySig:mean 	0.97618076892104
scalar Network.dyn_peer[306] 	lookupHopsSig:mean 	31
scalar Network.dyn_peer[307] 	lookupTimeSig:mean 	4.9176470588235
scalar Network.dyn_peer[307] 	lookupStabilitySig:mean 	0.9593597224037
scalar Network.dyn_peer[307] 	lookupHopsSig:mean 	48.235294117647
scalar Network.dyn_peer[308] 	lookupTimeSig:mean 	4.2142857142857
scalar Network.dyn_peer[308] 	lookupStabilitySig:mean 	0.97139071476912
scalar Network.dyn_peer[308] 	lookupHopsSig:mean 	41.190476190476
scalar Network.dyn_peer[309] 	lookupTimeSig:mean 	2.9964285714286
scalar Network.dyn_peer[309] 	lookupStabilitySig:mean 	0.97500760067487
scalar Network.dyn_peer[309] 	lookupHopsSig:mean 	29
scalar Network.dyn_peer[310] 	lookupTimeSig:mean 	3.5727272727273
scalar Network.dyn_peer[310] 	lookupStabilitySig:mean 	0.96953011180317
scalar Network.dyn_peer[310] 	lookupHopsSig:mean 	34.772727272727
scalar Network.dyn_peer[311] 	lookupTimeSig:mean 	3.756
scalar Network.dyn_peer[311] 	lookupStabilitySig:mean 	0.96930229494348
scalar Network.dyn_peer[311] 	lookupHopsSig:mean 	36.6
scalar Network.dyn_peer[312] 	lookupTimeSig:mean 	3.6416666666667
scalar Network.dyn_peer[312] 	lookupStabilitySig:mean 	0.97159007533143
scalar Network.dyn_peer[312] 	lookupHopsSig:mean 	35.458333333333
scalar Network.dyn_peer[313] 	lookupTimeSig:mean 	3.4739130434783
scalar Network.dyn_peer[313] 	lookupStabilitySig:mean 	0.97158257746259
scalar Network.dyn_peer[313] 	lookupHopsSig:mean 	33.782608695652
scalar Network.dyn_peer[314] 	lookupTimeSig:mean 	4.0444444444444
scalar Network.dyn_peer[314] 	lookupStabilitySig:mean 	0.96714413810211
scalar Network.dyn_peer[314] 	lookupHopsSig:mean 	39.5
scalar Network.dyn_peer[315] 	lookupTimeSig:mean 	3.5352941176471
scalar Network.dyn_peer[315] 	lookupStabilitySig:mean 	0.96149438647005
scalar Network.dyn_peer[315] 	lookupHopsSig:mean 	34.411764705882
scalar Network.dyn_peer[316] 	lookupTimeSig:mean 	2.8071428571429
scalar Network.dyn_peer[316] 	lookupStabilitySig:mean 	0.97197807964819
scalar Network.dyn_peer[316] 	lookupHopsSig:mean 	27.142857142857
scalar Network.dyn_peer[317] 	lookupTimeSig:mean 	3.1333333333333
scalar Network.dyn_peer[317] 	lookupStabilitySig:mean 	0.96608625074538
scalar Network.dyn_peer[317] 	lookupHopsSig:mean 	30.4
scalar Network.dyn_peer[318] 	lookupTimeSig:mean 	4.412
scalar Network.dyn_peer[318] 	lookupStabilitySig:mean 	0.97281499899924
scalar Network.dyn_peer[318] 	lookupHopsSig:mean 	43.16
scalar Network.dyn_peer[319] 	lookupTimeSig:mean 	4.44
scalar Network.dyn_peer[319] 	lookupStabilitySig:mean 	0.97625594679266
scalar Network.dyn_peer[319] 	lookupHopsSig:mean 	43.45
scalar Network.dyn_peer[320] 	lookupTimeSig:mean 	4.2
scalar Network.dyn_peer[320] 	lookupStabilitySig:mean 	0.97437367612623
scalar Network.dyn_peer[320] 	lookupHopsSig:mean 	41.045454545455
scalar Network.dyn_peer[321] 	lookupTimeSig:mean 	2.12
scalar Network.dyn_peer[321] 	lookupStabilitySig:mean 	0.96484277371007
scalar Network.dyn_peer[321] 	lookupHopsSig:mean 	20.266666666667
scalar Network.dyn_peer[322] 	lookupTimeSig:mean 	3.2285714285714
scalar Network.dyn_peer[322] 	lookupStabilitySig:mean 	0.97008721527111
scalar Network.dyn_peer[322] 	lookupHopsSig:mean 	31.357142857143
scalar Network.dyn_peer[323] 	lookupTimeSig:mean 	4.1307692307692
scalar Network.dyn_peer[323] 	lookupStabilitySig:mean 	0.96443739322086
scalar Network.dyn_peer[323] 	lookupHopsSig:mean 	40.384615384615
scalar Network.dyn_peer[324] 	lookupTimeSig:mean 	3.7388888888889
scalar Network.dyn_peer[324] 	lookupStabilitySig:mean 	0.96388885006309
scalar Network.dyn_peer[324] 	lookupHopsSig:mean 	36.444444444444
scalar Network.dyn_peer[325] 	lookupTimeSig:mean 	2.6444444444444
scalar Network.dyn_peer[325] 	lookupStabilitySig:mean 	0.96913156650003
scalar Network.dyn_peer[325] 	lookupHopsSig:mean 	25.5
scalar Network.dyn_peer[326] 	lookupTimeSig:mean 	4.0666666666667
scalar Network.dyn_peer[326] 	lookupStabilitySig:mean 	0.97270682300829
scalar Network.dyn_peer[326] 	lookupHopsSig:mean 	39.708333333333
scalar Network.dyn_peer[327] 	lookupTimeSig:mean 	3.4666666666667
scalar Network.dyn_peer[327] 	lookupStabilitySig:mean 	0.96590160704883
scalar Network.dyn_peer[327] 	lookupHopsSig:mean 	33.714285714286
scalar Network.dyn_peer[328] 	lookupTimeSig:mean 	3.6944444444444
scalar Network.dyn_peer[328] 	lookupStabilitySig:mean 	0.96770160451221
scalar Network.dyn_peer[328] 	lookupHopsSig:mean 	36
scalar Network.dyn_peer[329] 	lookupTimeSig:mean 	3.2583333333333
scalar Network.dyn_peer[329] 	lookupStabilitySig:mean 	0.97381720133611
scalar Network.dyn_peer[329] 	lookupHopsSig:mean 	31.625
scalar Network.dyn_peer[330] 	lookupTimeSig:mean 	3.934375
scalar Network.dyn_peer[330] 	lookupStabilitySig:mean 	0.97428482616669
scalar Network.dyn_peer[330] 	lookupHopsSig:mean 	38.375
scalar Network.dyn_peer[331] 	lookupTimeSig:mean 	3.9294117647059
scalar Network.dyn_peer[331] 	lookupStabilitySig:mean 	0.96668760196361
scalar Network.dyn_peer[331] 	lookupHopsSig:mean 	38.352941176471
scalar Network.dyn_peer[332] 	lookupTimeSig:mean 	3.2333333333333
scalar Network.dyn_peer[332] 	lookupStabilitySig:mean 	0.97890265592529
scalar Network.dyn_peer[332] 	lookupHopsSig:mean 	31.37037037037
scalar Network.dyn_peer[333] 	lookupTimeSig:mean 	2.9227272727273
scalar Network.dyn_peer[333] 	lookupStabilitySig:mean 	0.97545971017627
scalar Network.dyn_peer[333] 	lookupHopsSig:mean 	28.272727272727
scalar Network.dyn_peer[334] 	lookupTimeSig:mean 	3.03125
scalar Network.dyn_peer[334] 	lookupStabilitySig:mean 	0.96502408054948
scalar Network.dyn_peer[334] 	lookupHopsSig:mean 	29.375
scalar Network.dyn_peer[335] 	lookupTimeSig:mean 	2.9714285714286
scalar Network.dyn_peer[335] 	lookupStabilitySig:mean 	0.96882366240468
scalar Network.dyn_peer[335] 	lookupHopsSig:mean 	28.761904761905
scalar Network.dyn_peer[336] 	lookupTimeSig:mean 	4.1684210526316
scalar Network.dyn_peer[336] 	lookupStabilitySig:mean 	0.96589507928461
scalar Network.dyn_peer[336] 	lookupHopsSig:mean 	40.736842105263
scalar Network.dyn_peer[337] 	lookupTimeSig:mean 	3.4785714285714
scalar Network.dyn_peer[337] 	lookupStabilitySig:mean 	0.96088864438103
scalar Network.dyn_peer[337] 	lookupHopsSig:mean 	33.857142857143
scalar Network.dyn_peer[338] 	lookupTimeSig:mean 	3.0347826086957
scalar Network.dyn_peer[338] 	lookupStabilitySig:mean 	0.96912174093355
scalar Network.dyn_peer[338] 	lookupHopsSig:mean 	29.391304347826
scalar Network.dyn_peer[339] 	lookupTimeSig:mean 	3.6944444444444
scalar Network.dyn_peer[339] 	lookupStabilitySig:mean 	0.97507104597106
scalar Network.dyn_peer[339] 	lookupHopsSig:mean 	36
scalar Network.dyn_peer[340] 	lookupTimeSig:mean 	3.2578947368421
scalar Network.dyn_peer[340] 	lookupStabilitySig:mean 	0.97164326598929
scalar Network.dyn_peer[340] 	lookupHopsSig:mean 	31.631578947368
scalar Network.dyn_peer[341] 	lookupTimeSig:mean 	2.452
scalar Network.dyn_peer[341] 	lookupStabilitySig:mean 	0.97147341413889
scalar Network.dyn_peer[341] 	lookupHopsSig:mean 	23.56
scalar Network.dyn_peer[342] 	lookupTimeSig:mean 	2.8478260869565
scalar Network.dyn_peer[342] 	lookupStabilitySig:mean 	0.97305199743309
scalar Network.dyn_peer[342] 	lookupHopsSig:mean 	27.521739130435
scalar Network.dyn_peer[343] 	lookupTimeSig:mean 	3.67
scalar Network.dyn_peer[343] 	lookupStabilitySig:mean 	0.95930937365629
scalar Network.dyn_peer[343] 	lookupHopsSig:mean 	35.8
scalar Network.dyn_peer[344] 	lookupTimeSig:mean 	2.744
scalar Network.dyn_peer[344] 	lookupStabilitySig:mean 	0.97486460056156
scalar Network.dyn_peer[344] 	lookupHopsSig:mean 	26.48
scalar Network.dyn_peer[345] 	lookupTimeSig:mean 	2.9047619047619
scalar Network.dyn_peer[345] 	lookupStabilitySig:mean 	0.97059447190813
scalar Network.dyn_peer[345] 	lookupHopsSig:mean 	28.095238095238
scalar Network.dyn_peer[346] 	lookupTimeSig:mean 	3.8666666666667
scalar Network.dyn_peer[346] 	lookupStabilitySig:mean 	0.97120006503537
scalar Network.dyn_peer[346] 	lookupHopsSig:mean 	37.733333333333
scalar Network.dyn_peer[347] 	lookupTimeSig:mean 	2.995
scalar Network.dyn_peer[347] 	lookupStabilitySig:mean 	0.96758079746505
scalar Network.dyn_peer[347] 	lookupHopsSig:mean 	29
scalar Network.dyn_peer[348] 	lookupTimeSig:mean 	2.8833333333333
scalar Network.dyn_peer[348] 	lookupStabilitySig:mean 	0.9653549719369
scalar Network.dyn_peer[348] 	lookupHopsSig:mean 	27.916666666667
scalar Network.dyn_peer[349] 	lookupTimeSig:mean 	3.755
scalar Network.dyn_peer[349] 	lookupStabilitySig:mean 	0.96809155910742
scalar Network.dyn_peer[349] 	lookupHopsSig:mean 	36.6
scalar Network.dyn_peer[350] 	lookupTimeSig:mean 	3.34375
scalar Network.dyn_peer[350] 	lookupStabilitySig:mean 	0.96359711117111
scalar Network.dyn_peer[350] 	lookupHopsSig:mean 	32.5
scalar Network.dyn_peer[351] 	lookupTimeSig:mean 	2.9181818181818
scalar Network.dyn_peer[351] 	lookupStabilitySig:mean 	0.98153642142742
scalar Network.dyn_peer[351] 	lookupHopsSig:mean 	28.227272727273
scalar Network.dyn_peer[352] 	lookupTimeSig:mean 	3.3869565217391
scalar Network.dyn_peer[352] 	lookupStabilitySig:mean 	0.96854694613822
scalar Network.dyn_peer[352] 	lookupHopsSig:mean 	32.913043478261
scalar Network.dyn_peer[353] 	lookupTimeSig:mean 	4.5368421052632
scalar Network.dyn_peer[353] 	lookupStabilitySig:mean 	0.97487345377081
scalar Network.dyn_peer[353] 	lookupHopsSig:mean 	44.421052631579
scalar Network.dyn_peer[354] 	lookupTimeSig:mean 	4.9111111111111
scalar Network.dyn_peer[354] 	lookupStabilitySig:mean 	0.97265019463117
scalar Network.dyn_peer[354] 	lookupHopsSig:mean 	48.166666666667
scalar Network.dyn_peer[355] 	lookupTimeSig:mean 	3.484
scalar Network.dyn_peer[355] 	lookupStabilitySig:mean 	0.97980268901214
scalar Network.dyn_peer[355] 	lookupHopsSig:mean 	33.88
scalar Network.dyn_peer[356] 	lookupTimeSig:mean 	1.78
scalar Network.dyn_peer[356] 	lookupStabilitySig:mean 	0.96843563433116
scalar Network.dyn_peer[356] 	lookupHopsSig:mean 	16.866666666667
scalar Network.dyn_peer[357] 	lookupTimeSig:mean 	3.892
scalar Network.dyn_peer[357] 	lookupStabilitySig:mean 	0.97446279019117
scalar Network.dyn_peer[357] 	lookupHopsSig:mean 	37.96
scalar Network.dyn_peer[358] 	lookupTimeSig:mean 	3.3166666666667
scalar Network.dyn_peer[358] 	lookupStabilitySig:mean 	0.97084081969741
scalar Network.dyn_peer[358] 	lookupHopsSig:mean 	32.222222222222
scalar Network.dyn_peer[359] 	lookupTimeSig:mean 	3.6457142857143
scalar Network.dyn_peer[359] 	lookupStabilitySig:mean 	0.97878187988619
scalar Network.dyn_peer[359] 	lookupHopsSig:mean 	35.485714285714
scalar Network.dyn_peer[360] 	lookupTimeSig:mean 	2.8684210526316
scalar Network.dyn_peer[360] 	lookupStabilitySig:mean 	0.9713914339112
scalar Network.dyn_peer[360] 	lookupHopsSig:mean 	27.736842105263
scalar Network.dyn_peer[361] 	lookupTimeSig:mean 	2.6909090909091
scalar Network.dyn_peer[361] 	lookupStabilitySig:mean 	0.95857958247441
scalar Network.dyn_peer[361] 	lookupHopsSig:mean 	26
scalar Network.dyn_peer[362] 	lookupTimeSig:mean 	2.4090909090909
scalar Network.dyn_peer[362] 	lookupStabilitySig:mean 	0.96970363206823
scalar Network.dyn_peer[362] 	lookupHopsSig:mean 	23.181818181818
scalar Network.dyn_peer[363] 	lookupTimeSig:mean 	2.7294117647059
scalar Network.dyn_peer[363] 	lookupStabilitySig:mean 	0.97065515929888
scalar Network.dyn_peer[363] 	lookupHopsSig:mean 	26.352941176471
scalar Network.dyn_peer[364] 	lookupTimeSig:mean 	2.8291666666667
scalar Network.dyn_peer[364] 	lookupStabilitySig:mean 	0.97623827286103
scalar Network.dyn_peer[364] 	lookupHopsSig:mean 	27.333333333333
scalar Network.dyn_peer[365] 	lookupTimeSig:mean 	2.8
scalar Network.dyn_peer[365] 	lookupStabilitySig:mean 	0.96660313223644
scalar Network.dyn_peer[365] 	lookupHopsSig:mean 	27.083333333333
scalar Network.dyn_peer[366] 	lookupTimeSig:mean 	3.3260869565217
scalar Network.dyn_peer[366] 	lookupStabilitySig:mean 	0.97090444983105
scalar Network.dyn_peer[366] 	lookupHopsSig:mean 	32.304347826087
scalar Network.dyn_peer[367] 	lookupTimeSig:mean 	3.6666666666667
scalar Network.dyn_peer[367] 	lookupStabilitySig:mean 	0.96322516811391
scalar Network.dyn_peer[367] 	lookupHopsSig:mean 	35.733333333333
scalar Network.dyn_peer[368] 	lookupTimeSig:mean 	4.5833333333333
scalar Network.dyn_peer[368] 	lookupStabilitySig:mean 	0.9741084803245
scalar Network.dyn_peer[368] 	lookupHopsSig:mean 	44.875
scalar Network.dyn_peer[369] 	lookupTimeSig:mean 	4.1
scalar Network.dyn_peer[369] 	lookupStabilitySig:mean 	0.97161604368471
scalar Network.dyn_peer[369] 	lookupHopsSig:mean 	40.052631578947
scalar Network.dyn_peer[370] 	lookupTimeSig:mean 	3.0526315789474
scalar Network.dyn_peer[370] 	lookupStabilitySig:mean 	0.97170943057312
scalar Network.dyn_peer[370] 	lookupHopsSig:mean 	29.578947368421
scalar Network.dyn_peer[371] 	lookupTimeSig:mean 	3.2333333333333
scalar Network.dyn_peer[371] 	lookupStabilitySig:mean 	0.96602690099583
scalar Network.dyn_peer[371] 	lookupHopsSig:mean 	31.416666666667
scalar Network.dyn_peer[372] 	lookupTimeSig:mean 	4.652380952381
scalar Network.dyn_peer[372] 	lookupStabilitySig:mean 	0.97518578384327
scalar Network.dyn_peer[372] 	lookupHopsSig:mean 	45.571428571429
scalar Network.dyn_peer[373] 	lookupTimeSig:mean 	2.7481481481481
scalar Network.dyn_peer[373] 	lookupStabilitySig:mean 	0.978663073055
scalar Network.dyn_peer[373] 	lookupHopsSig:mean 	26.518518518519
scalar Network.dyn_peer[374] 	lookupTimeSig:mean 	3.0368421052632
scalar Network.dyn_peer[374] 	lookupStabilitySig:mean 	0.96621112667612
scalar Network.dyn_peer[374] 	lookupHopsSig:mean 	29.421052631579
scalar Network.dyn_peer[375] 	lookupTimeSig:mean 	3.18
scalar Network.dyn_peer[375] 	lookupStabilitySig:mean 	0.96298700543121
scalar Network.dyn_peer[375] 	lookupHopsSig:mean 	30.9
scalar Network.dyn_peer[376] 	lookupTimeSig:mean 	3.57
scalar Network.dyn_peer[376] 	lookupStabilitySig:mean 	0.97513074509334
scalar Network.dyn_peer[376] 	lookupHopsSig:mean 	34.75
scalar Network.dyn_peer[377] 	lookupTimeSig:mean 	3.904347826087
scalar Network.dyn_peer[377] 	lookupStabilitySig:mean 	0.97272988437149
scalar Network.dyn_peer[377] 	lookupHopsSig:mean 	38.086956521739
scalar Network.dyn_peer[378] 	lookupTimeSig:mean 	4.5733333333333
scalar Network.dyn_peer[378] 	lookupStabilitySig:mean 	0.9557997285078
scalar Network.dyn_peer[378] 	lookupHopsSig:mean 	44.8
scalar Network.dyn_peer[379] 	lookupTimeSig:mean 	3.95
scalar Network.dyn_peer[379] 	lookupStabilitySig:mean 	0.97917604369448
scalar Network.dyn_peer[379] 	lookupHopsSig:mean 	38.527777777778
scalar Network.dyn_peer[380] 	lookupTimeSig:mean 	2.8
scalar Network.dyn_peer[380] 	lookupStabilitySig:mean 	0.97039185504739
scalar Network.dyn_peer[380] 	lookupHopsSig:mean 	27.066666666667
scalar Network.dyn_peer[381] 	lookupTimeSig:mean 	3.55
scalar Network.dyn_peer[381] 	lookupStabilitySig:mean 	0.95990951019727
scalar Network.dyn_peer[381] 	lookupHopsSig:mean 	34.583333333333
scalar Network.dyn_peer[382] 	lookupTimeSig:mean 	2.0583333333333
scalar Network.dyn_peer[382] 	lookupStabilitySig:mean 	0.96286222637476
scalar Network.dyn_peer[382] 	lookupHopsSig:mean 	19.666666666667
scalar Network.dyn_peer[383] 	lookupTimeSig:mean 	3.90625
scalar Network.dyn_peer[383] 	lookupStabilitySig:mean 	0.96705610965728
scalar Network.dyn_peer[383] 	lookupHopsSig:mean 	38.125
scalar Network.dyn_peer[384] 	lookupTimeSig:mean 	3.3625
scalar Network.dyn_peer[384] 	lookupStabilitySig:mean 	0.96950990064943
scalar Network.dyn_peer[384] 	lookupHopsSig:mean 	32.6875
scalar Network.dyn_peer[385] 	lookupTimeSig:mean 	3.425
scalar Network.dyn_peer[385] 	lookupStabilitySig:mean 	0.97077875444666
scalar Network.dyn_peer[385] 	lookupHopsSig:mean 	33.3
scalar Network.dyn_peer[386] 	lookupTimeSig:mean 	3.2466666666667
scalar Network.dyn_peer[386] 	lookupStabilitySig:mean 	0.96127548885221
scalar Network.dyn_peer[386] 	lookupHopsSig:mean 	31.533333333333
scalar Network.dyn_peer[387] 	lookupTimeSig:mean 	4.5117647058824
scalar Network.dyn_peer[387] 	lookupStabilitySig:mean 	0.96974204951788
scalar Network.dyn_peer[387] 	lookupHopsSig:mean 	44.176470588235
scalar Network.dyn_peer[388] 	lookupTimeSig:mean 	2.4888888888889
scalar Network.dyn_peer[388] 	lookupStabilitySig:mean 	0.96374749119342
scalar Network.dyn_peer[388] 	lookupHopsSig:mean 	24
scalar Network.dyn_peer[389] 	lookupTimeSig:mean 	3.925
scalar Network.dyn_peer[389] 	lookupStabilitySig:mean 	0.97561364712393
scalar Network.dyn_peer[389] 	lookupHopsSig:mean 	38.285714285714
scalar Network.dyn_peer[390] 	lookupTimeSig:mean 	2.755
scalar Network.dyn_peer[390] 	lookupStabilitySig:mean 	0.97520380623173
scalar Network.dyn_peer[390] 	lookupHopsSig:mean 	26.6
scalar Network.dyn_peer[391] 	lookupTimeSig:mean 	3.3666666666667
scalar Network.dyn_peer[391] 	lookupStabilitySig:mean 	0.96785919133496
scalar Network.dyn_peer[391] 	lookupHopsSig:mean 	32.75
scalar Network.dyn_peer[392] 	lookupTimeSig:mean 	2.7933333333333
scalar Network.dyn_peer[392] 	lookupStabilitySig:mean 	0.97720369180509
scalar Network.dyn_peer[392] 	lookupHopsSig:mean 	27
scalar Network.dyn_peer[393] 	lookupTimeSig:mean 	4.48
scalar Network.dyn_peer[393] 	lookupStabilitySig:mean 	0.96922283740714
scalar Network.dyn_peer[393] 	lookupHopsSig:mean 	43.866666666667
scalar Network.dyn_peer[394] 	lookupTimeSig:mean 	3.7888888888889
scalar Network.dyn_peer[394] 	lookupStabilitySig:mean 	0.97636299176762
scalar Network.dyn_peer[394] 	lookupHopsSig:mean 	36.925925925926
scalar Network.dyn_peer[395] 	lookupTimeSig:mean 	3.3318181818182
scalar Network.dyn_peer[395] 	lookupStabilitySig:mean 	0.96992314520123
scalar Network.dyn_peer[395] 	lookupHopsSig:mean 	32.363636363636
scalar Network.dyn_peer[396] 	lookupTimeSig:mean 	2.3176470588235
scalar Network.dyn_peer[396] 	lookupStabilitySig:mean 	0.97025034965619
scalar Network.dyn_peer[396] 	lookupHopsSig:mean 	22.235294117647
scalar Network.dyn_peer[397] 	lookupTimeSig:mean 	4.1055555555556
scalar Network.dyn_peer[397] 	lookupStabilitySig:mean 	0.97036911228982
scalar Network.dyn_peer[397] 	lookupHopsSig:mean 	40.111111111111
scalar Network.dyn_peer[398] 	lookupTimeSig:mean 	3.1
scalar Network.dyn_peer[398] 	lookupStabilitySig:mean 	0.97752234303184
scalar Network.dyn_peer[398] 	lookupHopsSig:mean 	30.034482758621
scalar Network.dyn_peer[399] 	lookupTimeSig:mean 	3.59375
scalar Network.dyn_peer[399] 	lookupStabilitySig:mean 	0.97973480252222
scalar Network.dyn_peer[399] 	lookupHopsSig:mean 	34.96875
scalar Network.dyn_peer[400] 	lookupTimeSig:mean 	4.0823529411765
scalar Network.dyn_peer[400] 	lookupStabilitySig:mean 	0.97249023131478
scalar Network.dyn_peer[400] 	lookupHopsSig:mean 	39.882352941176
scalar Network.dyn_peer[401] 	lookupTimeSig:mean 	4.9055555555556
scalar Network.dyn_peer[401] 	lookupStabilitySig:mean 	0.96893386612646
scalar Network.dyn_peer[401] 	lookupHopsSig:mean 	48.111111111111
scalar Network.dyn_peer[402] 	lookupTimeSig:mean 	1.6272727272727
scalar Network.dyn_peer[402] 	lookupStabilitySig:mean 	0.96183346144178
scalar Network.dyn_peer[402] 	lookupHopsSig:mean 	15.363636363636
scalar Network.dyn_peer[403] 	lookupTimeSig:mean 	3.4625
scalar Network.dyn_peer[403] 	lookupStabilitySig:mean 	0.97445781214628
scalar Network.dyn_peer[403] 	lookupHopsSig:mean 	33.75
scalar Network.dyn_peer[404] 	lookupTimeSig:mean 	3.255
scalar Network.dyn_peer[404] 	lookupStabilitySig:mean 	0.97309754283633
scalar Network.dyn_peer[404] 	lookupHopsSig:mean 	31.6
[...]
scalar Network.dyn_peer[9899] 	lookupStabilitySig:mean 	0.9925056695162
scalar Network.dyn_peer[9899] 	lookupHopsSig:mean 	59.833333333333
scalar Network.dyn_peer[9900] 	lookupTimeSig:mean 	5.2222222222222
scalar Network.dyn_peer[9900] 	lookupStabilitySig:mean 	0.99386705851389
scalar Network.dyn_peer[9900] 	lookupHopsSig:mean 	51.333333333333
scalar Network.dyn_peer[9901] 	lookupTimeSig:mean 	5.1
scalar Network.dyn_peer[9901] 	lookupStabilitySig:mean 	0.99294385158767
scalar Network.dyn_peer[9901] 	lookupHopsSig:mean 	50.333333333333
scalar Network.dyn_peer[9902] 	lookupTimeSig:mean 	5.0923076923077
scalar Network.dyn_peer[9902] 	lookupStabilitySig:mean 	0.99425262029175
scalar Network.dyn_peer[9902] 	lookupHopsSig:mean 	50
scalar Network.dyn_peer[9903] 	lookupTimeSig:mean 	7.2666666666667
scalar Network.dyn_peer[9903] 	lookupStabilitySig:mean 	0.99044685764238
scalar Network.dyn_peer[9903] 	lookupHopsSig:mean 	72
scalar Network.dyn_peer[9904] 	lookupTimeSig:mean 	7.9
scalar Network.dyn_peer[9904] 	lookupStabilitySig:mean 	0.98915690928698
scalar Network.dyn_peer[9904] 	lookupHopsSig:mean 	78.5
scalar Network.dyn_peer[9905] 	lookupTimeSig:mean 	6.1857142857143
scalar Network.dyn_peer[9905] 	lookupStabilitySig:mean 	0.99252483927246
scalar Network.dyn_peer[9905] 	lookupHopsSig:mean 	61
scalar Network.dyn_peer[9906] 	lookupTimeSig:mean 	6.5428571428571
scalar Network.dyn_peer[9906] 	lookupStabilitySig:mean 	0.99212535630379
scalar Network.dyn_peer[9906] 	lookupHopsSig:mean 	64.571428571429
scalar Network.dyn_peer[9907] 	lookupTimeSig:mean 	4.1818181818182
scalar Network.dyn_peer[9907] 	lookupStabilitySig:mean 	0.99497407513925
scalar Network.dyn_peer[9907] 	lookupHopsSig:mean 	40.909090909091
scalar Network.dyn_peer[9908] 	lookupTimeSig:mean 	4.4454545454545
scalar Network.dyn_peer[9908] 	lookupStabilitySig:mean 	0.99472880963532
scalar Network.dyn_peer[9908] 	lookupHopsSig:mean 	43.545454545455
scalar Network.dyn_peer[9909] 	lookupTimeSig:mean 	3.8
scalar Network.dyn_peer[9909] 	lookupStabilitySig:mean 	0.99474346812349
scalar Network.dyn_peer[9909] 	lookupHopsSig:mean 	37.25
scalar Network.dyn_peer[9910] 	lookupTimeSig:mean 	3.0454545454545
scalar Network.dyn_peer[9910] 	lookupStabilitySig:mean 	0.99629550228763
scalar Network.dyn_peer[9910] 	lookupHopsSig:mean 	29.545454545455
scalar Network.dyn_peer[9911] 	lookupTimeSig:mean 	5.55
scalar Network.dyn_peer[9911] 	lookupStabilitySig:mean 	0.99300186270072
scalar Network.dyn_peer[9911] 	lookupHopsSig:mean 	54.666666666667
scalar Network.dyn_peer[9912] 	lookupTimeSig:mean 	5.6555555555556
scalar Network.dyn_peer[9912] 	lookupStabilitySig:mean 	0.99331223069587
scalar Network.dyn_peer[9912] 	lookupHopsSig:mean 	55.666666666667
scalar Network.dyn_peer[9913] 	lookupTimeSig:mean 	6.275
scalar Network.dyn_peer[9913] 	lookupStabilitySig:mean 	0.99254340829793
scalar Network.dyn_peer[9913] 	lookupHopsSig:mean 	61.875
scalar Network.dyn_peer[9914] 	lookupTimeSig:mean 	3.3
scalar Network.dyn_peer[9914] 	lookupStabilitySig:mean 	0.99538505123928
scalar Network.dyn_peer[9914] 	lookupHopsSig:mean 	32.25
scalar Network.dyn_peer[9915] 	lookupTimeSig:mean 	4.2090909090909
scalar Network.dyn_peer[9915] 	lookupStabilitySig:mean 	0.99499455971157
scalar Network.dyn_peer[9915] 	lookupHopsSig:mean 	41.181818181818
scalar Network.dyn_peer[9916] 	lookupTimeSig:mean 	5.475
scalar Network.dyn_peer[9916] 	lookupStabilitySig:mean 	0.99338764663844
scalar Network.dyn_peer[9916] 	lookupHopsSig:mean 	53.875
scalar Network.dyn_peer[9917] 	lookupTimeSig:mean 	3.5071428571429
scalar Network.dyn_peer[9917] 	lookupStabilitySig:mean 	0.99586023401935
scalar Network.dyn_peer[9917] 	lookupHopsSig:mean 	34.142857142857
scalar Network.dyn_peer[9918] 	lookupTimeSig:mean 	5.3714285714286
scalar Network.dyn_peer[9918] 	lookupStabilitySig:mean 	0.99337812789184
scalar Network.dyn_peer[9918] 	lookupHopsSig:mean 	52.857142857143
scalar Network.dyn_peer[9919] 	lookupTimeSig:mean 	4.95
scalar Network.dyn_peer[9919] 	lookupStabilitySig:mean 	0.993927443953
scalar Network.dyn_peer[9919] 	lookupHopsSig:mean 	48.625
scalar Network.dyn_peer[9920] 	lookupTimeSig:mean 	4.0571428571429
scalar Network.dyn_peer[9920] 	lookupStabilitySig:mean 	0.99483399507257
scalar Network.dyn_peer[9920] 	lookupHopsSig:mean 	39.714285714286
scalar Network.dyn_peer[9921] 	lookupTimeSig:mean 	5.9
scalar Network.dyn_peer[9921] 	lookupStabilitySig:mean 	0.993237678332
scalar Network.dyn_peer[9921] 	lookupHopsSig:mean 	58.090909090909
scalar Network.dyn_peer[9922] 	lookupTimeSig:mean 	5.5166666666667
scalar Network.dyn_peer[9922] 	lookupStabilitySig:mean 	0.99308246409055
scalar Network.dyn_peer[9922] 	lookupHopsSig:mean 	54.333333333333
scalar Network.dyn_peer[9923] 	lookupTimeSig:mean 	5.1
scalar Network.dyn_peer[9923] 	lookupStabilitySig:mean 	0.99365403884024
scalar Network.dyn_peer[9923] 	lookupHopsSig:mean 	50.142857142857
scalar Network.dyn_peer[9924] 	lookupTimeSig:mean 	4.3142857142857
scalar Network.dyn_peer[9924] 	lookupStabilitySig:mean 	0.99454154621344
scalar Network.dyn_peer[9924] 	lookupHopsSig:mean 	42.285714285714
scalar Network.dyn_peer[9925] 	lookupTimeSig:mean 	5.8714285714286
scalar Network.dyn_peer[9925] 	lookupStabilitySig:mean 	0.99284182019931
scalar Network.dyn_peer[9925] 	lookupHopsSig:mean 	57.857142857143
scalar Network.dyn_peer[9926] 	lookupTimeSig:mean 	7.9
scalar Network.dyn_peer[9926] 	lookupStabilitySig:mean 	0.99115607346822
scalar Network.dyn_peer[9926] 	lookupHopsSig:mean 	78.111111111111
scalar Network.dyn_peer[9927] 	lookupTimeSig:mean 	7.68
scalar Network.dyn_peer[9927] 	lookupStabilitySig:mean 	0.99073744246271
scalar Network.dyn_peer[9927] 	lookupHopsSig:mean 	76
scalar Network.dyn_peer[9928] 	lookupTimeSig:mean 	6.8
scalar Network.dyn_peer[9928] 	lookupStabilitySig:mean 	0.99193407013081
scalar Network.dyn_peer[9928] 	lookupHopsSig:mean 	67.142857142857
scalar Network.dyn_peer[9929] 	lookupTimeSig:mean 	3.85
scalar Network.dyn_peer[9929] 	lookupStabilitySig:mean 	0.99538608895576
scalar Network.dyn_peer[9929] 	lookupHopsSig:mean 	37.583333333333
scalar Network.dyn_peer[9930] 	lookupTimeSig:mean 	4.52
scalar Network.dyn_peer[9930] 	lookupStabilitySig:mean 	0.99462475762703
scalar Network.dyn_peer[9930] 	lookupHopsSig:mean 	44.3
scalar Network.dyn_peer[9931] 	lookupTimeSig:mean 	3.2
scalar Network.dyn_peer[9931] 	lookupStabilitySig:mean 	0.99581673633241
scalar Network.dyn_peer[9931] 	lookupHopsSig:mean 	31.142857142857
scalar Network.dyn_peer[9932] 	lookupTimeSig:mean 	6.025
scalar Network.dyn_peer[9932] 	lookupStabilitySig:mean 	0.99286348171881
scalar Network.dyn_peer[9932] 	lookupHopsSig:mean 	59.375
scalar Network.dyn_peer[9933] 	lookupTimeSig:mean 	6.3533333333333
scalar Network.dyn_peer[9933] 	lookupStabilitySig:mean 	0.99309064953898
scalar Network.dyn_peer[9933] 	lookupHopsSig:mean 	62.6
scalar Network.dyn_peer[9934] 	lookupTimeSig:mean 	5.4307692307692
scalar Network.dyn_peer[9934] 	lookupStabilitySig:mean 	0.99397879133288
scalar Network.dyn_peer[9934] 	lookupHopsSig:mean 	53.384615384615
scalar Network.dyn_peer[9935] 	lookupTimeSig:mean 	5.9545454545455
scalar Network.dyn_peer[9935] 	lookupStabilitySig:mean 	0.99326033022424
scalar Network.dyn_peer[9935] 	lookupHopsSig:mean 	58.636363636364
scalar Network.dyn_peer[9936] 	lookupTimeSig:mean 	3.2
scalar Network.dyn_peer[9936] 	lookupStabilitySig:mean 	0.99532686267048
scalar Network.dyn_peer[9936] 	lookupHopsSig:mean 	31.5
scalar Network.dyn_peer[9937] 	lookupTimeSig:mean 	3.3142857142857
scalar Network.dyn_peer[9937] 	lookupStabilitySig:mean 	0.99564328985954
scalar Network.dyn_peer[9937] 	lookupHopsSig:mean 	32.285714285714
scalar Network.dyn_peer[9938] 	lookupTimeSig:mean 	3.3142857142857
scalar Network.dyn_peer[9938] 	lookupStabilitySig:mean 	0.9956376805702
scalar Network.dyn_peer[9938] 	lookupHopsSig:mean 	32.285714285714
scalar Network.dyn_peer[9939] 	lookupTimeSig:mean 	5.5
scalar Network.dyn_peer[9939] 	lookupStabilitySig:mean 	0.99325703496912
scalar Network.dyn_peer[9939] 	lookupHopsSig:mean 	54.142857142857
scalar Network.dyn_peer[9940] 	lookupTimeSig:mean 	5.6666666666667
scalar Network.dyn_peer[9940] 	lookupStabilitySig:mean 	0.99230007563407
scalar Network.dyn_peer[9940] 	lookupHopsSig:mean 	56
scalar Network.dyn_peer[9941] 	lookupTimeSig:mean 	4.8333333333333
scalar Network.dyn_peer[9941] 	lookupStabilitySig:mean 	0.99379811230271
scalar Network.dyn_peer[9941] 	lookupHopsSig:mean 	47.5
scalar Network.dyn_peer[9942] 	lookupTimeSig:mean 	4.8222222222222
scalar Network.dyn_peer[9942] 	lookupStabilitySig:mean 	0.99419818352908
scalar Network.dyn_peer[9942] 	lookupHopsSig:mean 	47.333333333333
scalar Network.dyn_peer[9943] 	lookupTimeSig:mean 	6.49
scalar Network.dyn_peer[9943] 	lookupStabilitySig:mean 	0.99257764620706
scalar Network.dyn_peer[9943] 	lookupHopsSig:mean 	64
scalar Network.dyn_peer[9944] 	lookupTimeSig:mean 	5.8
scalar Network.dyn_peer[9944] 	lookupStabilitySig:mean 	0.99346304203694
scalar Network.dyn_peer[9944] 	lookupHopsSig:mean 	57.083333333333
scalar Network.dyn_peer[9945] 	lookupTimeSig:mean 	4.0666666666667
scalar Network.dyn_peer[9945] 	lookupStabilitySig:mean 	0.99435570393689
scalar Network.dyn_peer[9945] 	lookupHopsSig:mean 	40
scalar Network.dyn_peer[9946] 	lookupTimeSig:mean 	5.175
scalar Network.dyn_peer[9946] 	lookupStabilitySig:mean 	0.99378974211868
scalar Network.dyn_peer[9946] 	lookupHopsSig:mean 	50.875
scalar Network.dyn_peer[9947] 	lookupTimeSig:mean 	4.2833333333333
scalar Network.dyn_peer[9947] 	lookupStabilitySig:mean 	0.99495748493549
scalar Network.dyn_peer[9947] 	lookupHopsSig:mean 	41.916666666667
scalar Network.dyn_peer[9948] 	lookupTimeSig:mean 	6.6066666666667
scalar Network.dyn_peer[9948] 	lookupStabilitySig:mean 	0.9929048690324
scalar Network.dyn_peer[9948] 	lookupHopsSig:mean 	65.133333333333
scalar Network.dyn_peer[9949] 	lookupTimeSig:mean 	4.3571428571429
scalar Network.dyn_peer[9949] 	lookupStabilitySig:mean 	0.99444555446306
scalar Network.dyn_peer[9949] 	lookupHopsSig:mean 	42.714285714286
scalar Network.dyn_peer[9950] 	lookupTimeSig:mean 	3.9285714285714
scalar Network.dyn_peer[9950] 	lookupStabilitySig:mean 	0.99493031932174
scalar Network.dyn_peer[9950] 	lookupHopsSig:mean 	38.428571428571
scalar Network.dyn_peer[9951] 	lookupTimeSig:mean 	6.7857142857143
scalar Network.dyn_peer[9951] 	lookupStabilitySig:mean 	0.99193855705172
scalar Network.dyn_peer[9951] 	lookupHopsSig:mean 	67
scalar Network.dyn_peer[9952] 	lookupTimeSig:mean 	4.175
scalar Network.dyn_peer[9952] 	lookupStabilitySig:mean 	0.99427586630918
scalar Network.dyn_peer[9952] 	lookupHopsSig:mean 	41
scalar Network.dyn_peer[9953] 	lookupTimeSig:mean 	3.86
scalar Network.dyn_peer[9953] 	lookupStabilitySig:mean 	0.99481852094177
scalar Network.dyn_peer[9953] 	lookupHopsSig:mean 	37.8
scalar Network.dyn_peer[9954] 	lookupTimeSig:mean 	4.9272727272727
scalar Network.dyn_peer[9954] 	lookupStabilitySig:mean 	0.99424739584157
scalar Network.dyn_peer[9954] 	lookupHopsSig:mean 	48.363636363636
scalar Network.dyn_peer[9955] 	lookupTimeSig:mean 	4.7375
scalar Network.dyn_peer[9955] 	lookupStabilitySig:mean 	0.99418267926376
scalar Network.dyn_peer[9955] 	lookupHopsSig:mean 	46.5
scalar Network.dyn_peer[9956] 	lookupTimeSig:mean 	6.85
scalar Network.dyn_peer[9956] 	lookupStabilitySig:mean 	0.9924658597835
scalar Network.dyn_peer[9956] 	lookupHopsSig:mean 	67.583333333333
scalar Network.dyn_peer[9957] 	lookupTimeSig:mean 	5.5857142857143
scalar Network.dyn_peer[9957] 	lookupStabilitySig:mean 	0.99325758089045
scalar Network.dyn_peer[9957] 	lookupHopsSig:mean 	55
scalar Network.dyn_peer[9958] 	lookupTimeSig:mean 	5.1833333333333
scalar Network.dyn_peer[9958] 	lookupStabilitySig:mean 	0.99361336151439
scalar Network.dyn_peer[9958] 	lookupHopsSig:mean 	51
scalar Network.dyn_peer[9959] 	lookupTimeSig:mean 	4.7571428571429
scalar Network.dyn_peer[9959] 	lookupStabilitySig:mean 	0.99461071099254
scalar Network.dyn_peer[9959] 	lookupHopsSig:mean 	46.642857142857
scalar Network.dyn_peer[9960] 	lookupTimeSig:mean 	5.48
scalar Network.dyn_peer[9960] 	lookupStabilitySig:mean 	0.99292510626838
scalar Network.dyn_peer[9960] 	lookupHopsSig:mean 	54
scalar Network.dyn_peer[9961] 	lookupTimeSig:mean 	4.6428571428571
scalar Network.dyn_peer[9961] 	lookupStabilitySig:mean 	0.99420267004254
scalar Network.dyn_peer[9961] 	lookupHopsSig:mean 	45.571428571429
scalar Network.dyn_peer[9962] 	lookupTimeSig:mean 	2.4769230769231
scalar Network.dyn_peer[9962] 	lookupStabilitySig:mean 	0.99690151665933
scalar Network.dyn_peer[9962] 	lookupHopsSig:mean 	23.846153846154
scalar Network.dyn_peer[9963] 	lookupTimeSig:mean 	3.7375
scalar Network.dyn_peer[9963] 	lookupStabilitySig:mean 	0.99523727580527
scalar Network.dyn_peer[9963] 	lookupHopsSig:mean 	36.5
scalar Network.dyn_peer[9964] 	lookupTimeSig:mean 	6.6083333333333
scalar Network.dyn_peer[9964] 	lookupStabilitySig:mean 	0.99276341689983
scalar Network.dyn_peer[9964] 	lookupHopsSig:mean 	65.166666666667
scalar Network.dyn_peer[9965] 	lookupTimeSig:mean 	5.9
scalar Network.dyn_peer[9965] 	lookupStabilitySig:mean 	0.99182887806091
scalar Network.dyn_peer[9965] 	lookupHopsSig:mean 	58.5
scalar Network.dyn_peer[9966] 	lookupTimeSig:mean 	4.4
scalar Network.dyn_peer[9966] 	lookupStabilitySig:mean 	0.99368459079415
scalar Network.dyn_peer[9966] 	lookupHopsSig:mean 	43.5
scalar Network.dyn_peer[9967] 	lookupTimeSig:mean 	4.975
scalar Network.dyn_peer[9967] 	lookupStabilitySig:mean 	0.99391154223122
scalar Network.dyn_peer[9967] 	lookupHopsSig:mean 	48.875
scalar Network.dyn_peer[9968] 	lookupTimeSig:mean 	3.7076923076923
scalar Network.dyn_peer[9968] 	lookupStabilitySig:mean 	0.99559558609214
scalar Network.dyn_peer[9968] 	lookupHopsSig:mean 	36.153846153846
scalar Network.dyn_peer[9969] 	lookupTimeSig:mean 	3.67
scalar Network.dyn_peer[9969] 	lookupStabilitySig:mean 	0.99548631526413
scalar Network.dyn_peer[9969] 	lookupHopsSig:mean 	35.8
scalar Network.dyn_peer[9970] 	lookupTimeSig:mean 	6.3625
scalar Network.dyn_peer[9970] 	lookupStabilitySig:mean 	0.99253693895298
scalar Network.dyn_peer[9970] 	lookupHopsSig:mean 	62.75
scalar Network.dyn_peer[9971] 	lookupTimeSig:mean 	3.8307692307692
scalar Network.dyn_peer[9971] 	lookupStabilitySig:mean 	0.99548415158642
scalar Network.dyn_peer[9971] 	lookupHopsSig:mean 	37.384615384615
scalar Network.dyn_peer[9972] 	lookupTimeSig:mean 	5.9714285714286
scalar Network.dyn_peer[9972] 	lookupStabilitySig:mean 	0.99286455996168
scalar Network.dyn_peer[9972] 	lookupHopsSig:mean 	58.857142857143
scalar Network.dyn_peer[9973] 	lookupTimeSig:mean 	5.8153846153846
scalar Network.dyn_peer[9973] 	lookupStabilitySig:mean 	0.99354229702686
scalar Network.dyn_peer[9973] 	lookupHopsSig:mean 	57.230769230769
scalar Network.dyn_peer[9974] 	lookupTimeSig:mean 	7.7714285714286
scalar Network.dyn_peer[9974] 	lookupStabilitySig:mean 	0.9910353449772
scalar Network.dyn_peer[9974] 	lookupHopsSig:mean 	76.857142857143
scalar Network.dyn_peer[9975] 	lookupTimeSig:mean 	5.8142857142857
scalar Network.dyn_peer[9975] 	lookupStabilitySig:mean 	0.99294631618873
scalar Network.dyn_peer[9975] 	lookupHopsSig:mean 	57.285714285714
scalar Network.dyn_peer[9976] 	lookupTimeSig:mean 	6.6428571428571
scalar Network.dyn_peer[9976] 	lookupStabilitySig:mean 	0.99206758895889
scalar Network.dyn_peer[9976] 	lookupHopsSig:mean 	65.571428571429
scalar Network.dyn_peer[9977] 	lookupTimeSig:mean 	3.8333333333333
scalar Network.dyn_peer[9977] 	lookupStabilitySig:mean 	0.99501783156302
scalar Network.dyn_peer[9977] 	lookupHopsSig:mean 	37.5
scalar Network.dyn_peer[9978] 	lookupTimeSig:mean 	5.0666666666667
scalar Network.dyn_peer[9978] 	lookupStabilitySig:mean 	0.9943983674127
scalar Network.dyn_peer[9978] 	lookupHopsSig:mean 	49.733333333333
scalar Network.dyn_peer[9979] 	lookupTimeSig:mean 	5.4272727272727
scalar Network.dyn_peer[9979] 	lookupStabilitySig:mean 	0.99374800462233
scalar Network.dyn_peer[9979] 	lookupHopsSig:mean 	53.363636363636
scalar Network.dyn_peer[9980] 	lookupTimeSig:mean 	7.58
scalar Network.dyn_peer[9980] 	lookupStabilitySig:mean 	0.99075404643081
scalar Network.dyn_peer[9980] 	lookupHopsSig:mean 	75
scalar Network.dyn_peer[9981] 	lookupTimeSig:mean 	8.16
scalar Network.dyn_peer[9981] 	lookupStabilitySig:mean 	0.99027879587375
scalar Network.dyn_peer[9981] 	lookupHopsSig:mean 	80.8
scalar Network.dyn_peer[9982] 	lookupTimeSig:mean 	5.9285714285714
scalar Network.dyn_peer[9982] 	lookupStabilitySig:mean 	0.99283310950601
scalar Network.dyn_peer[9982] 	lookupHopsSig:mean 	58.428571428571
scalar Network.dyn_peer[9983] 	lookupTimeSig:mean 	5.0142857142857
scalar Network.dyn_peer[9983] 	lookupStabilitySig:mean 	0.99374717686857
scalar Network.dyn_peer[9983] 	lookupHopsSig:mean 	49.285714285714
scalar Network.dyn_peer[9984] 	lookupTimeSig:mean 	6.6666666666667
scalar Network.dyn_peer[9984] 	lookupStabilitySig:mean 	0.99111888371408
scalar Network.dyn_peer[9984] 	lookupHopsSig:mean 	66
scalar Network.dyn_peer[9985] 	lookupTimeSig:mean 	4.7714285714286
scalar Network.dyn_peer[9985] 	lookupStabilitySig:mean 	0.99400819967767
scalar Network.dyn_peer[9985] 	lookupHopsSig:mean 	46.857142857143
scalar Network.dyn_peer[9986] 	lookupTimeSig:mean 	2.425
scalar Network.dyn_peer[9986] 	lookupStabilitySig:mean 	0.99657738010865
scalar Network.dyn_peer[9986] 	lookupHopsSig:mean 	23.5
scalar Network.dyn_peer[9987] 	lookupTimeSig:mean 	4.5875
scalar Network.dyn_peer[9987] 	lookupStabilitySig:mean 	0.9943830541597
scalar Network.dyn_peer[9987] 	lookupHopsSig:mean 	45
scalar Network.dyn_peer[9988] 	lookupTimeSig:mean 	3.7875
scalar Network.dyn_peer[9988] 	lookupStabilitySig:mean 	0.99519444907492
scalar Network.dyn_peer[9988] 	lookupHopsSig:mean 	37
scalar Network.dyn_peer[9989] 	lookupTimeSig:mean 	4.5411764705882
scalar Network.dyn_peer[9989] 	lookupStabilitySig:mean 	0.9950155079851
scalar Network.dyn_peer[9989] 	lookupHopsSig:mean 	44.470588235294
scalar Network.dyn_peer[9990] 	lookupTimeSig:mean 	6.3142857142857
scalar Network.dyn_peer[9990] 	lookupStabilitySig:mean 	0.99242184131539
scalar Network.dyn_peer[9990] 	lookupHopsSig:mean 	62.285714285714
scalar Network.dyn_peer[9991] 	lookupTimeSig:mean 	6.7142857142857
scalar Network.dyn_peer[9991] 	lookupStabilitySig:mean 	0.9920853621027
scalar Network.dyn_peer[9991] 	lookupHopsSig:mean 	66.285714285714
scalar Network.dyn_peer[9992] 	lookupTimeSig:mean 	5.3428571428571
scalar Network.dyn_peer[9992] 	lookupStabilitySig:mean 	0.99344090074633
scalar Network.dyn_peer[9992] 	lookupHopsSig:mean 	52.571428571429
scalar Network.dyn_peer[9993] 	lookupTimeSig:mean 	4.9333333333333
scalar Network.dyn_peer[9993] 	lookupStabilitySig:mean 	0.99407213959946
scalar Network.dyn_peer[9993] 	lookupHopsSig:mean 	48.444444444444
scalar Network.dyn_peer[9994] 	lookupTimeSig:mean 	3.1923076923077
scalar Network.dyn_peer[9994] 	lookupStabilitySig:mean 	0.99616266398404
scalar Network.dyn_peer[9994] 	lookupHopsSig:mean 	31
scalar Network.dyn_peer[9995] 	lookupTimeSig:mean 	4.75
scalar Network.dyn_peer[9995] 	lookupStabilitySig:mean 	0.99361125961877
scalar Network.dyn_peer[9995] 	lookupHopsSig:mean 	46.75
scalar Network.dyn_peer[9996] 	lookupTimeSig:mean 	4.2181818181818
scalar Network.dyn_peer[9996] 	lookupStabilitySig:mean 	0.99497345159232
scalar Network.dyn_peer[9996] 	lookupHopsSig:mean 	41.272727272727
scalar Network.dyn_peer[9997] 	lookupTimeSig:mean 	7.175
scalar Network.dyn_peer[9997] 	lookupStabilitySig:mean 	0.99109351699008
scalar Network.dyn_peer[9997] 	lookupHopsSig:mean 	71
scalar Network.dyn_peer[9998] 	lookupTimeSig:mean 	5.6
scalar Network.dyn_peer[9998] 	lookupStabilitySig:mean 	0.99366451902703
scalar Network.dyn_peer[9998] 	lookupHopsSig:mean 	55.083333333333
scalar Network.dyn_peer[9999] 	lookupTimeSig:mean 	5.1545454545455
scalar Network.dyn_peer[9999] 	lookupStabilitySig:mean 	0.994035622613
scalar Network.dyn_peer[9999] 	lookupHopsSig:mean 	50.636363636364
scalar Network.churner 	inGoingSizeSig:mean 	2135.6444355564
