version 2
run Stability2-84-20130528-01:42:02-24168
attr configname Stability2
attr datetime 20130528-01:42:02
attr experiment Stability2
attr inifile omnetpp.ini
attr iterationvars $0=400
attr iterationvars2 "$0=400, $repetition=4"
attr measurement $0=400
attr network Network
attr processid 24168
attr repetition 4
attr replication #4
attr resultdir results
attr runnumber 84
attr seedset 84

scalar Network.dyn_peer[0] 	lookupTimeSig:mean 	2.4846153846154
scalar Network.dyn_peer[0] 	lookupStabilitySig:mean 	0.83839730533341
scalar Network.dyn_peer[0] 	lookupHopsSig:mean 	23.923076923077
scalar Network.dyn_peer[1] 	lookupTimeSig:mean 	3.4461538461538
scalar Network.dyn_peer[1] 	lookupStabilitySig:mean 	0.85274494403543
scalar Network.dyn_peer[1] 	lookupHopsSig:mean 	33.538461538462
scalar Network.dyn_peer[2] 	lookupTimeSig:mean 	3.25
scalar Network.dyn_peer[2] 	lookupStabilitySig:mean 	0.89218100015488
scalar Network.dyn_peer[2] 	lookupHopsSig:mean 	31.555555555556
scalar Network.dyn_peer[3] 	lookupTimeSig:mean 	3.0285714285714
scalar Network.dyn_peer[3] 	lookupStabilitySig:mean 	0.81123025702046
scalar Network.dyn_peer[3] 	lookupHopsSig:mean 	29.357142857143
scalar Network.dyn_peer[4] 	lookupTimeSig:mean 	2.75
scalar Network.dyn_peer[4] 	lookupStabilitySig:mean 	0.85616133819955
scalar Network.dyn_peer[4] 	lookupHopsSig:mean 	26.583333333333
scalar Network.dyn_peer[5] 	lookupTimeSig:mean 	3.1882352941176
scalar Network.dyn_peer[5] 	lookupStabilitySig:mean 	0.84028855160646
scalar Network.dyn_peer[5] 	lookupHopsSig:mean 	30.941176470588
scalar Network.dyn_peer[6] 	lookupTimeSig:mean 	2.3615384615385
scalar Network.dyn_peer[6] 	lookupStabilitySig:mean 	0.82494807687516
scalar Network.dyn_peer[6] 	lookupHopsSig:mean 	22.692307692308
scalar Network.dyn_peer[7] 	lookupTimeSig:mean 	2.3857142857143
scalar Network.dyn_peer[7] 	lookupStabilitySig:mean 	0.82452365330287
scalar Network.dyn_peer[7] 	lookupHopsSig:mean 	22.928571428571
scalar Network.dyn_peer[8] 	lookupTimeSig:mean 	2.2538461538462
scalar Network.dyn_peer[8] 	lookupStabilitySig:mean 	0.8776800035714
scalar Network.dyn_peer[8] 	lookupHopsSig:mean 	21.615384615385
scalar Network.dyn_peer[9] 	lookupTimeSig:mean 	2.4210526315789
scalar Network.dyn_peer[9] 	lookupStabilitySig:mean 	0.88404718362481
scalar Network.dyn_peer[9] 	lookupHopsSig:mean 	23.263157894737
scalar Network.dyn_peer[10] 	lookupTimeSig:mean 	3.1545454545455
scalar Network.dyn_peer[10] 	lookupStabilitySig:mean 	0.8081061238931
scalar Network.dyn_peer[10] 	lookupHopsSig:mean 	30.636363636364
scalar Network.dyn_peer[11] 	lookupTimeSig:mean 	2.0842105263158
scalar Network.dyn_peer[11] 	lookupStabilitySig:mean 	0.86316672594924
scalar Network.dyn_peer[11] 	lookupHopsSig:mean 	19.894736842105
scalar Network.dyn_peer[12] 	lookupTimeSig:mean 	2.0333333333333
scalar Network.dyn_peer[12] 	lookupStabilitySig:mean 	0.85405470343928
scalar Network.dyn_peer[12] 	lookupHopsSig:mean 	19.4
scalar Network.dyn_peer[13] 	lookupTimeSig:mean 	1.9333333333333
scalar Network.dyn_peer[13] 	lookupStabilitySig:mean 	0.89592747514447
scalar Network.dyn_peer[13] 	lookupHopsSig:mean 	18.388888888889
scalar Network.dyn_peer[14] 	lookupTimeSig:mean 	1.7764705882353
scalar Network.dyn_peer[14] 	lookupStabilitySig:mean 	0.87624547816813
scalar Network.dyn_peer[14] 	lookupHopsSig:mean 	16.823529411765
scalar Network.dyn_peer[15] 	lookupTimeSig:mean 	2.9857142857143
scalar Network.dyn_peer[15] 	lookupStabilitySig:mean 	0.89771261955112
scalar Network.dyn_peer[15] 	lookupHopsSig:mean 	28.904761904762
scalar Network.dyn_peer[16] 	lookupTimeSig:mean 	2.56
scalar Network.dyn_peer[16] 	lookupStabilitySig:mean 	0.90904827969304
scalar Network.dyn_peer[16] 	lookupHopsSig:mean 	24.666666666667
scalar Network.dyn_peer[17] 	lookupTimeSig:mean 	1.8533333333333
scalar Network.dyn_peer[17] 	lookupStabilitySig:mean 	0.86972437265019
scalar Network.dyn_peer[17] 	lookupHopsSig:mean 	17.6
scalar Network.dyn_peer[18] 	lookupTimeSig:mean 	1.5785714285714
scalar Network.dyn_peer[18] 	lookupStabilitySig:mean 	0.83758251628439
scalar Network.dyn_peer[18] 	lookupHopsSig:mean 	14.857142857143
scalar Network.dyn_peer[19] 	lookupTimeSig:mean 	3.325
scalar Network.dyn_peer[19] 	lookupStabilitySig:mean 	0.86519606539514
scalar Network.dyn_peer[19] 	lookupHopsSig:mean 	32.3125
scalar Network.dyn_peer[20] 	lookupTimeSig:mean 	2.8666666666667
scalar Network.dyn_peer[20] 	lookupStabilitySig:mean 	0.88683188784247
scalar Network.dyn_peer[20] 	lookupHopsSig:mean 	27.733333333333
scalar Network.dyn_peer[21] 	lookupTimeSig:mean 	2.8416666666667
scalar Network.dyn_peer[21] 	lookupStabilitySig:mean 	0.89681409082065
scalar Network.dyn_peer[21] 	lookupHopsSig:mean 	27.5
scalar Network.dyn_peer[22] 	lookupTimeSig:mean 	2.5384615384615
scalar Network.dyn_peer[22] 	lookupStabilitySig:mean 	0.87825208257597
scalar Network.dyn_peer[22] 	lookupHopsSig:mean 	24.461538461538
scalar Network.dyn_peer[23] 	lookupTimeSig:mean 	1.8842105263158
scalar Network.dyn_peer[23] 	lookupStabilitySig:mean 	0.88755865434283
scalar Network.dyn_peer[23] 	lookupHopsSig:mean 	17.894736842105
scalar Network.dyn_peer[24] 	lookupTimeSig:mean 	2.6454545454545
scalar Network.dyn_peer[24] 	lookupStabilitySig:mean 	0.82924615202302
scalar Network.dyn_peer[24] 	lookupHopsSig:mean 	25.545454545455
scalar Network.dyn_peer[25] 	lookupTimeSig:mean 	2.31875
scalar Network.dyn_peer[25] 	lookupStabilitySig:mean 	0.88162249245215
scalar Network.dyn_peer[25] 	lookupHopsSig:mean 	22.25
scalar Network.dyn_peer[26] 	lookupTimeSig:mean 	2.0285714285714
scalar Network.dyn_peer[26] 	lookupStabilitySig:mean 	0.86791664428477
scalar Network.dyn_peer[26] 	lookupHopsSig:mean 	19.357142857143
scalar Network.dyn_peer[27] 	lookupTimeSig:mean 	1.65
scalar Network.dyn_peer[27] 	lookupStabilitySig:mean 	0.90466653462499
scalar Network.dyn_peer[27] 	lookupHopsSig:mean 	15.5625
scalar Network.dyn_peer[28] 	lookupTimeSig:mean 	1.8944444444444
scalar Network.dyn_peer[28] 	lookupStabilitySig:mean 	0.89689866823998
scalar Network.dyn_peer[28] 	lookupHopsSig:mean 	18
scalar Network.dyn_peer[29] 	lookupTimeSig:mean 	2.1416666666667
scalar Network.dyn_peer[29] 	lookupStabilitySig:mean 	0.84010490348252
scalar Network.dyn_peer[29] 	lookupHopsSig:mean 	20.5
scalar Network.dyn_peer[30] 	lookupTimeSig:mean 	1.9
scalar Network.dyn_peer[30] 	lookupStabilitySig:mean 	0.84034565320382
scalar Network.dyn_peer[30] 	lookupHopsSig:mean 	18.076923076923
scalar Network.dyn_peer[31] 	lookupTimeSig:mean 	2.7526315789474
scalar Network.dyn_peer[31] 	lookupStabilitySig:mean 	0.88654885472926
scalar Network.dyn_peer[31] 	lookupHopsSig:mean 	26.578947368421
scalar Network.dyn_peer[32] 	lookupTimeSig:mean 	2.1444444444444
scalar Network.dyn_peer[32] 	lookupStabilitySig:mean 	0.7796263123552
scalar Network.dyn_peer[32] 	lookupHopsSig:mean 	20.555555555556
scalar Network.dyn_peer[33] 	lookupTimeSig:mean 	1.675
scalar Network.dyn_peer[33] 	lookupStabilitySig:mean 	0.83430450106971
scalar Network.dyn_peer[33] 	lookupHopsSig:mean 	15.833333333333
scalar Network.dyn_peer[34] 	lookupTimeSig:mean 	3.3272727272727
scalar Network.dyn_peer[34] 	lookupStabilitySig:mean 	0.85098228747533
scalar Network.dyn_peer[34] 	lookupHopsSig:mean 	32.363636363636
scalar Network.dyn_peer[35] 	lookupTimeSig:mean 	2.3733333333333
scalar Network.dyn_peer[35] 	lookupStabilitySig:mean 	0.8709371672788
scalar Network.dyn_peer[35] 	lookupHopsSig:mean 	22.8
scalar Network.dyn_peer[36] 	lookupTimeSig:mean 	2.7611111111111
scalar Network.dyn_peer[36] 	lookupStabilitySig:mean 	0.86898671711485
scalar Network.dyn_peer[36] 	lookupHopsSig:mean 	26.666666666667
scalar Network.dyn_peer[37] 	lookupTimeSig:mean 	2.6461538461538
scalar Network.dyn_peer[37] 	lookupStabilitySig:mean 	0.9017736744852
scalar Network.dyn_peer[37] 	lookupHopsSig:mean 	25.538461538462
scalar Network.dyn_peer[38] 	lookupTimeSig:mean 	2.0090909090909
scalar Network.dyn_peer[38] 	lookupStabilitySig:mean 	0.86804958780042
scalar Network.dyn_peer[38] 	lookupHopsSig:mean 	19.181818181818
scalar Network.dyn_peer[39] 	lookupTimeSig:mean 	1.92
scalar Network.dyn_peer[39] 	lookupStabilitySig:mean 	0.86799055021256
scalar Network.dyn_peer[39] 	lookupHopsSig:mean 	18.266666666667
scalar Network.dyn_peer[40] 	lookupTimeSig:mean 	1.9615384615385
scalar Network.dyn_peer[40] 	lookupStabilitySig:mean 	0.83720079694803
scalar Network.dyn_peer[40] 	lookupHopsSig:mean 	18.692307692308
scalar Network.dyn_peer[41] 	lookupTimeSig:mean 	2.0142857142857
scalar Network.dyn_peer[41] 	lookupStabilitySig:mean 	0.89421816456265
scalar Network.dyn_peer[41] 	lookupHopsSig:mean 	19.214285714286
scalar Network.dyn_peer[42] 	lookupTimeSig:mean 	2.3375
scalar Network.dyn_peer[42] 	lookupStabilitySig:mean 	0.85955856257351
scalar Network.dyn_peer[42] 	lookupHopsSig:mean 	22.5
scalar Network.dyn_peer[43] 	lookupTimeSig:mean 	2.03
scalar Network.dyn_peer[43] 	lookupStabilitySig:mean 	0.89704915415496
scalar Network.dyn_peer[43] 	lookupHopsSig:mean 	19.35
scalar Network.dyn_peer[44] 	lookupTimeSig:mean 	2.3375
scalar Network.dyn_peer[44] 	lookupStabilitySig:mean 	0.89150360034546
scalar Network.dyn_peer[44] 	lookupHopsSig:mean 	22.4375
scalar Network.dyn_peer[45] 	lookupTimeSig:mean 	1.83
scalar Network.dyn_peer[45] 	lookupStabilitySig:mean 	0.8520720497705
scalar Network.dyn_peer[45] 	lookupHopsSig:mean 	17.4
scalar Network.dyn_peer[46] 	lookupTimeSig:mean 	2.9125
scalar Network.dyn_peer[46] 	lookupStabilitySig:mean 	0.78385406034067
scalar Network.dyn_peer[46] 	lookupHopsSig:mean 	28.25
scalar Network.dyn_peer[47] 	lookupTimeSig:mean 	2.5375
scalar Network.dyn_peer[47] 	lookupStabilitySig:mean 	0.78203110024333
scalar Network.dyn_peer[47] 	lookupHopsSig:mean 	24.5
scalar Network.dyn_peer[48] 	lookupTimeSig:mean 	2.7941176470588
scalar Network.dyn_peer[48] 	lookupStabilitySig:mean 	0.89970222819487
scalar Network.dyn_peer[48] 	lookupHopsSig:mean 	27
scalar Network.dyn_peer[49] 	lookupTimeSig:mean 	3.26875
scalar Network.dyn_peer[49] 	lookupStabilitySig:mean 	0.9345020049077
scalar Network.dyn_peer[49] 	lookupHopsSig:mean 	31.75
scalar Network.dyn_peer[50] 	lookupTimeSig:mean 	3.39
scalar Network.dyn_peer[50] 	lookupStabilitySig:mean 	0.86045944560319
scalar Network.dyn_peer[50] 	lookupHopsSig:mean 	33
scalar Network.dyn_peer[51] 	lookupTimeSig:mean 	1.1777777777778
scalar Network.dyn_peer[51] 	lookupStabilitySig:mean 	0.90869023863019
scalar Network.dyn_peer[51] 	lookupHopsSig:mean 	10.833333333333
scalar Network.dyn_peer[52] 	lookupTimeSig:mean 	2.225
scalar Network.dyn_peer[52] 	lookupStabilitySig:mean 	0.84985595848411
scalar Network.dyn_peer[52] 	lookupHopsSig:mean 	21.333333333333
scalar Network.dyn_peer[53] 	lookupTimeSig:mean 	2
scalar Network.dyn_peer[53] 	lookupStabilitySig:mean 	0.86555501129478
scalar Network.dyn_peer[53] 	lookupHopsSig:mean 	19.1
scalar Network.dyn_peer[54] 	lookupTimeSig:mean 	1.2642857142857
scalar Network.dyn_peer[54] 	lookupStabilitySig:mean 	0.88592470530421
scalar Network.dyn_peer[54] 	lookupHopsSig:mean 	11.714285714286
scalar Network.dyn_peer[55] 	lookupTimeSig:mean 	2.1714285714286
scalar Network.dyn_peer[55] 	lookupStabilitySig:mean 	0.87926570871579
scalar Network.dyn_peer[55] 	lookupHopsSig:mean 	20.785714285714
scalar Network.dyn_peer[56] 	lookupTimeSig:mean 	2.6
scalar Network.dyn_peer[56] 	lookupStabilitySig:mean 	0.9196598616157
scalar Network.dyn_peer[56] 	lookupHopsSig:mean 	25.041666666667
scalar Network.dyn_peer[57] 	lookupTimeSig:mean 	1.7636363636364
scalar Network.dyn_peer[57] 	lookupStabilitySig:mean 	0.88117655730722
scalar Network.dyn_peer[57] 	lookupHopsSig:mean 	16.727272727273
scalar Network.dyn_peer[58] 	lookupTimeSig:mean 	2.2083333333333
scalar Network.dyn_peer[58] 	lookupStabilitySig:mean 	0.85113369727818
scalar Network.dyn_peer[58] 	lookupHopsSig:mean 	21.166666666667
scalar Network.dyn_peer[59] 	lookupTimeSig:mean 	2.1466666666667
scalar Network.dyn_peer[59] 	lookupStabilitySig:mean 	0.90499405848483
scalar Network.dyn_peer[59] 	lookupHopsSig:mean 	20.533333333333
scalar Network.dyn_peer[60] 	lookupTimeSig:mean 	2.2294117647059
scalar Network.dyn_peer[60] 	lookupStabilitySig:mean 	0.92989350139739
scalar Network.dyn_peer[60] 	lookupHopsSig:mean 	21.352941176471
scalar Network.dyn_peer[61] 	lookupTimeSig:mean 	2.55
scalar Network.dyn_peer[61] 	lookupStabilitySig:mean 	0.91922885055343
scalar Network.dyn_peer[61] 	lookupHopsSig:mean 	24.583333333333
scalar Network.dyn_peer[62] 	lookupTimeSig:mean 	3.68
scalar Network.dyn_peer[62] 	lookupStabilitySig:mean 	0.93081434896837
scalar Network.dyn_peer[62] 	lookupHopsSig:mean 	35.866666666667
scalar Network.dyn_peer[63] 	lookupTimeSig:mean 	3.3888888888889
scalar Network.dyn_peer[63] 	lookupStabilitySig:mean 	0.82586107692785
scalar Network.dyn_peer[63] 	lookupHopsSig:mean 	33
scalar Network.dyn_peer[64] 	lookupTimeSig:mean 	2.4357142857143
scalar Network.dyn_peer[64] 	lookupStabilitySig:mean 	0.90131793164515
scalar Network.dyn_peer[64] 	lookupHopsSig:mean 	23.428571428571
scalar Network.dyn_peer[65] 	lookupTimeSig:mean 	2.3
scalar Network.dyn_peer[65] 	lookupStabilitySig:mean 	0.89061886935184
scalar Network.dyn_peer[65] 	lookupHopsSig:mean 	22.066666666667
scalar Network.dyn_peer[66] 	lookupTimeSig:mean 	1.8857142857143
scalar Network.dyn_peer[66] 	lookupStabilitySig:mean 	0.87594827721893
scalar Network.dyn_peer[66] 	lookupHopsSig:mean 	18
scalar Network.dyn_peer[67] 	lookupTimeSig:mean 	1.5133333333333
scalar Network.dyn_peer[67] 	lookupStabilitySig:mean 	0.88126903430869
scalar Network.dyn_peer[67] 	lookupHopsSig:mean 	14.2
scalar Network.dyn_peer[68] 	lookupTimeSig:mean 	2.2333333333333
scalar Network.dyn_peer[68] 	lookupStabilitySig:mean 	0.92063982244581
scalar Network.dyn_peer[68] 	lookupHopsSig:mean 	21.4
scalar Network.dyn_peer[69] 	lookupTimeSig:mean 	1.3363636363636
scalar Network.dyn_peer[69] 	lookupStabilitySig:mean 	0.87595637176525
scalar Network.dyn_peer[69] 	lookupHopsSig:mean 	12.454545454545
scalar Network.dyn_peer[70] 	lookupTimeSig:mean 	2.4684210526316
scalar Network.dyn_peer[70] 	lookupStabilitySig:mean 	0.93014822339051
scalar Network.dyn_peer[70] 	lookupHopsSig:mean 	23.736842105263
scalar Network.dyn_peer[71] 	lookupTimeSig:mean 	1.345
scalar Network.dyn_peer[71] 	lookupStabilitySig:mean 	0.90766721211839
scalar Network.dyn_peer[71] 	lookupHopsSig:mean 	12.5
scalar Network.dyn_peer[72] 	lookupTimeSig:mean 	1.9785714285714
scalar Network.dyn_peer[72] 	lookupStabilitySig:mean 	0.88634556252509
scalar Network.dyn_peer[72] 	lookupHopsSig:mean 	18.857142857143
scalar Network.dyn_peer[73] 	lookupTimeSig:mean 	1.6823529411765
scalar Network.dyn_peer[73] 	lookupStabilitySig:mean 	0.91087655240999
scalar Network.dyn_peer[73] 	lookupHopsSig:mean 	15.882352941176
scalar Network.dyn_peer[74] 	lookupTimeSig:mean 	1.67
scalar Network.dyn_peer[74] 	lookupStabilitySig:mean 	0.92330307571683
scalar Network.dyn_peer[74] 	lookupHopsSig:mean 	15.75
scalar Network.dyn_peer[75] 	lookupTimeSig:mean 	2.1
scalar Network.dyn_peer[75] 	lookupStabilitySig:mean 	0.87705085527462
scalar Network.dyn_peer[75] 	lookupHopsSig:mean 	20.083333333333
scalar Network.dyn_peer[76] 	lookupTimeSig:mean 	2.6421052631579
scalar Network.dyn_peer[76] 	lookupStabilitySig:mean 	0.92111110714215
scalar Network.dyn_peer[76] 	lookupHopsSig:mean 	25.473684210526
scalar Network.dyn_peer[77] 	lookupTimeSig:mean 	2.6375
scalar Network.dyn_peer[77] 	lookupStabilitySig:mean 	0.84832903277129
scalar Network.dyn_peer[77] 	lookupHopsSig:mean 	25.5
scalar Network.dyn_peer[78] 	lookupTimeSig:mean 	3.2647058823529
scalar Network.dyn_peer[78] 	lookupStabilitySig:mean 	0.90610792378292
scalar Network.dyn_peer[78] 	lookupHopsSig:mean 	31.705882352941
scalar Network.dyn_peer[79] 	lookupTimeSig:mean 	2.90625
scalar Network.dyn_peer[79] 	lookupStabilitySig:mean 	0.91650062799454
scalar Network.dyn_peer[79] 	lookupHopsSig:mean 	28.125
scalar Network.dyn_peer[80] 	lookupTimeSig:mean 	3.38
scalar Network.dyn_peer[80] 	lookupStabilitySig:mean 	0.88154279123992
scalar Network.dyn_peer[80] 	lookupHopsSig:mean 	32.9
scalar Network.dyn_peer[81] 	lookupTimeSig:mean 	1.4090909090909
scalar Network.dyn_peer[81] 	lookupStabilitySig:mean 	0.89849660647186
scalar Network.dyn_peer[81] 	lookupHopsSig:mean 	13.181818181818
scalar Network.dyn_peer[82] 	lookupTimeSig:mean 	1.7416666666667
scalar Network.dyn_peer[82] 	lookupStabilitySig:mean 	0.89532970551712
scalar Network.dyn_peer[82] 	lookupHopsSig:mean 	16.5
scalar Network.dyn_peer[83] 	lookupTimeSig:mean 	2.4363636363636
scalar Network.dyn_peer[83] 	lookupStabilitySig:mean 	0.89791498155418
scalar Network.dyn_peer[83] 	lookupHopsSig:mean 	23.454545454545
scalar Network.dyn_peer[84] 	lookupTimeSig:mean 	2.448
scalar Network.dyn_peer[84] 	lookupStabilitySig:mean 	0.94403975130059
scalar Network.dyn_peer[84] 	lookupHopsSig:mean 	23.52
scalar Network.dyn_peer[85] 	lookupTimeSig:mean 	3.1666666666667
scalar Network.dyn_peer[85] 	lookupStabilitySig:mean 	0.87760180193517
scalar Network.dyn_peer[85] 	lookupHopsSig:mean 	30.777777777778
scalar Network.dyn_peer[86] 	lookupTimeSig:mean 	1.4736842105263
scalar Network.dyn_peer[86] 	lookupStabilitySig:mean 	0.93424062641632
scalar Network.dyn_peer[86] 	lookupHopsSig:mean 	13.789473684211
scalar Network.dyn_peer[87] 	lookupTimeSig:mean 	1.6571428571429
scalar Network.dyn_peer[87] 	lookupStabilitySig:mean 	0.84629301620381
scalar Network.dyn_peer[87] 	lookupHopsSig:mean 	15.714285714286
scalar Network.dyn_peer[88] 	lookupTimeSig:mean 	1.825
scalar Network.dyn_peer[88] 	lookupStabilitySig:mean 	0.86541205865797
scalar Network.dyn_peer[88] 	lookupHopsSig:mean 	17.375
scalar Network.dyn_peer[89] 	lookupTimeSig:mean 	1.81
scalar Network.dyn_peer[89] 	lookupStabilitySig:mean 	0.8884964408353
scalar Network.dyn_peer[89] 	lookupHopsSig:mean 	17.2
scalar Network.dyn_peer[90] 	lookupTimeSig:mean 	1.82
scalar Network.dyn_peer[90] 	lookupStabilitySig:mean 	0.9039741775021
scalar Network.dyn_peer[90] 	lookupHopsSig:mean 	17.3
scalar Network.dyn_peer[91] 	lookupTimeSig:mean 	3.0166666666667
scalar Network.dyn_peer[91] 	lookupStabilitySig:mean 	0.8943575603577
scalar Network.dyn_peer[91] 	lookupHopsSig:mean 	29.25
scalar Network.dyn_peer[92] 	lookupTimeSig:mean 	2.7076923076923
scalar Network.dyn_peer[92] 	lookupStabilitySig:mean 	0.91444736568687
scalar Network.dyn_peer[92] 	lookupHopsSig:mean 	26.153846153846
scalar Network.dyn_peer[93] 	lookupTimeSig:mean 	2.4214285714286
scalar Network.dyn_peer[93] 	lookupStabilitySig:mean 	0.91323247897838
scalar Network.dyn_peer[93] 	lookupHopsSig:mean 	23.285714285714
scalar Network.dyn_peer[94] 	lookupTimeSig:mean 	2.8333333333333
scalar Network.dyn_peer[94] 	lookupStabilitySig:mean 	0.89615203952417
scalar Network.dyn_peer[94] 	lookupHopsSig:mean 	27.416666666667
scalar Network.dyn_peer[95] 	lookupTimeSig:mean 	2.8416666666667
scalar Network.dyn_peer[95] 	lookupStabilitySig:mean 	0.91032153437845
scalar Network.dyn_peer[95] 	lookupHopsSig:mean 	27.5
scalar Network.dyn_peer[96] 	lookupTimeSig:mean 	2.2769230769231
scalar Network.dyn_peer[96] 	lookupStabilitySig:mean 	0.90688895484289
scalar Network.dyn_peer[96] 	lookupHopsSig:mean 	21.846153846154
scalar Network.dyn_peer[97] 	lookupTimeSig:mean 	1.9266666666667
scalar Network.dyn_peer[97] 	lookupStabilitySig:mean 	0.94005786852601
scalar Network.dyn_peer[97] 	lookupHopsSig:mean 	18.333333333333
scalar Network.dyn_peer[98] 	lookupTimeSig:mean 	2.5666666666667
scalar Network.dyn_peer[98] 	lookupStabilitySig:mean 	0.9066803344215
scalar Network.dyn_peer[98] 	lookupHopsSig:mean 	24.733333333333
scalar Network.dyn_peer[99] 	lookupTimeSig:mean 	2.4583333333333
scalar Network.dyn_peer[99] 	lookupStabilitySig:mean 	0.8855683337121
scalar Network.dyn_peer[99] 	lookupHopsSig:mean 	23.666666666667
scalar Network.dyn_peer[100] 	lookupTimeSig:mean 	2.71875
scalar Network.dyn_peer[100] 	lookupStabilitySig:mean 	0.91605499794241
scalar Network.dyn_peer[100] 	lookupHopsSig:mean 	26.25
scalar Network.dyn_peer[101] 	lookupTimeSig:mean 	1.8153846153846
scalar Network.dyn_peer[101] 	lookupStabilitySig:mean 	0.92902924364898
scalar Network.dyn_peer[101] 	lookupHopsSig:mean 	17.230769230769
scalar Network.dyn_peer[102] 	lookupTimeSig:mean 	3.00625
scalar Network.dyn_peer[102] 	lookupStabilitySig:mean 	0.92284357757308
scalar Network.dyn_peer[102] 	lookupHopsSig:mean 	29.125
scalar Network.dyn_peer[103] 	lookupTimeSig:mean 	2.8722222222222
scalar Network.dyn_peer[103] 	lookupStabilitySig:mean 	0.9427054767083
scalar Network.dyn_peer[103] 	lookupHopsSig:mean 	27.777777777778
scalar Network.dyn_peer[104] 	lookupTimeSig:mean 	2.51875
scalar Network.dyn_peer[104] 	lookupStabilitySig:mean 	0.93805631406576
scalar Network.dyn_peer[104] 	lookupHopsSig:mean 	24.25
scalar Network.dyn_peer[105] 	lookupTimeSig:mean 	2.26875
scalar Network.dyn_peer[105] 	lookupStabilitySig:mean 	0.92554942957941
scalar Network.dyn_peer[105] 	lookupHopsSig:mean 	21.75
scalar Network.dyn_peer[106] 	lookupTimeSig:mean 	3.00625
scalar Network.dyn_peer[106] 	lookupStabilitySig:mean 	0.92201066090638
scalar Network.dyn_peer[106] 	lookupHopsSig:mean 	29.125
scalar Network.dyn_peer[107] 	lookupTimeSig:mean 	2.0545454545455
scalar Network.dyn_peer[107] 	lookupStabilitySig:mean 	0.90828783187846
scalar Network.dyn_peer[107] 	lookupHopsSig:mean 	19.636363636364
scalar Network.dyn_peer[108] 	lookupTimeSig:mean 	2.15
scalar Network.dyn_peer[108] 	lookupStabilitySig:mean 	0.92129948535252
scalar Network.dyn_peer[108] 	lookupHopsSig:mean 	20.571428571429
scalar Network.dyn_peer[109] 	lookupTimeSig:mean 	2.6727272727273
scalar Network.dyn_peer[109] 	lookupStabilitySig:mean 	0.89250943327153
scalar Network.dyn_peer[109] 	lookupHopsSig:mean 	25.818181818182
scalar Network.dyn_peer[110] 	lookupTimeSig:mean 	1.9375
scalar Network.dyn_peer[110] 	lookupStabilitySig:mean 	0.91851380182197
scalar Network.dyn_peer[110] 	lookupHopsSig:mean 	18.4375
scalar Network.dyn_peer[111] 	lookupTimeSig:mean 	3.2142857142857
scalar Network.dyn_peer[111] 	lookupStabilitySig:mean 	0.94029101395115
scalar Network.dyn_peer[111] 	lookupHopsSig:mean 	31.214285714286
scalar Network.dyn_peer[112] 	lookupTimeSig:mean 	2.9466666666667
scalar Network.dyn_peer[112] 	lookupStabilitySig:mean 	0.93751695994288
scalar Network.dyn_peer[112] 	lookupHopsSig:mean 	28.533333333333
scalar Network.dyn_peer[113] 	lookupTimeSig:mean 	1.74
scalar Network.dyn_peer[113] 	lookupStabilitySig:mean 	0.93190682825322
scalar Network.dyn_peer[113] 	lookupHopsSig:mean 	16.466666666667
scalar Network.dyn_peer[114] 	lookupTimeSig:mean 	2.0615384615385
scalar Network.dyn_peer[114] 	lookupStabilitySig:mean 	0.91436969929446
scalar Network.dyn_peer[114] 	lookupHopsSig:mean 	19.692307692308
scalar Network.dyn_peer[115] 	lookupTimeSig:mean 	2.2823529411765
scalar Network.dyn_peer[115] 	lookupStabilitySig:mean 	0.93517245305702
scalar Network.dyn_peer[115] 	lookupHopsSig:mean 	21.882352941176
scalar Network.dyn_peer[116] 	lookupTimeSig:mean 	2.7
scalar Network.dyn_peer[116] 	lookupStabilitySig:mean 	0.93742211607085
scalar Network.dyn_peer[116] 	lookupHopsSig:mean 	26.071428571429
scalar Network.dyn_peer[117] 	lookupTimeSig:mean 	3.2166666666667
scalar Network.dyn_peer[117] 	lookupStabilitySig:mean 	0.94001741533995
scalar Network.dyn_peer[117] 	lookupHopsSig:mean 	31.222222222222
scalar Network.dyn_peer[118] 	lookupTimeSig:mean 	1.9294117647059
scalar Network.dyn_peer[118] 	lookupStabilitySig:mean 	0.95545120927615
scalar Network.dyn_peer[118] 	lookupHopsSig:mean 	18.352941176471
scalar Network.dyn_peer[119] 	lookupTimeSig:mean 	3.7888888888889
scalar Network.dyn_peer[119] 	lookupStabilitySig:mean 	0.87839142864363
scalar Network.dyn_peer[119] 	lookupHopsSig:mean 	37
scalar Network.dyn_peer[120] 	lookupTimeSig:mean 	1.8222222222222
scalar Network.dyn_peer[120] 	lookupStabilitySig:mean 	0.93632268253714
scalar Network.dyn_peer[120] 	lookupHopsSig:mean 	17.277777777778
scalar Network.dyn_peer[121] 	lookupTimeSig:mean 	1.1583333333333
scalar Network.dyn_peer[121] 	lookupStabilitySig:mean 	0.92041017355708
scalar Network.dyn_peer[121] 	lookupHopsSig:mean 	10.666666666667
scalar Network.dyn_peer[122] 	lookupTimeSig:mean 	1.475
scalar Network.dyn_peer[122] 	lookupStabilitySig:mean 	0.93201224183819
scalar Network.dyn_peer[122] 	lookupHopsSig:mean 	13.833333333333
scalar Network.dyn_peer[123] 	lookupTimeSig:mean 	3.0533333333333
scalar Network.dyn_peer[123] 	lookupStabilitySig:mean 	0.93190867801507
scalar Network.dyn_peer[123] 	lookupHopsSig:mean 	29.6
scalar Network.dyn_peer[124] 	lookupTimeSig:mean 	2.7
scalar Network.dyn_peer[124] 	lookupStabilitySig:mean 	0.88443005126384
scalar Network.dyn_peer[124] 	lookupHopsSig:mean 	26.111111111111
scalar Network.dyn_peer[125] 	lookupTimeSig:mean 	2.94
scalar Network.dyn_peer[125] 	lookupStabilitySig:mean 	0.95380951745668
scalar Network.dyn_peer[125] 	lookupHopsSig:mean 	28.44
scalar Network.dyn_peer[126] 	lookupTimeSig:mean 	2.2761904761905
scalar Network.dyn_peer[126] 	lookupStabilitySig:mean 	0.94632189468082
scalar Network.dyn_peer[126] 	lookupHopsSig:mean 	21.809523809524
scalar Network.dyn_peer[127] 	lookupTimeSig:mean 	2.2333333333333
scalar Network.dyn_peer[127] 	lookupStabilitySig:mean 	0.9064847216424
scalar Network.dyn_peer[127] 	lookupHopsSig:mean 	21.444444444444
scalar Network.dyn_peer[128] 	lookupTimeSig:mean 	2.7
scalar Network.dyn_peer[128] 	lookupStabilitySig:mean 	0.92328569342693
scalar Network.dyn_peer[128] 	lookupHopsSig:mean 	26.066666666667
scalar Network.dyn_peer[129] 	lookupTimeSig:mean 	2.62
scalar Network.dyn_peer[129] 	lookupStabilitySig:mean 	0.92766755229483
scalar Network.dyn_peer[129] 	lookupHopsSig:mean 	25.266666666667
scalar Network.dyn_peer[130] 	lookupTimeSig:mean 	2.46
scalar Network.dyn_peer[130] 	lookupStabilitySig:mean 	0.93590291813016
scalar Network.dyn_peer[130] 	lookupHopsSig:mean 	23.666666666667
scalar Network.dyn_peer[131] 	lookupTimeSig:mean 	2.9045454545455
scalar Network.dyn_peer[131] 	lookupStabilitySig:mean 	0.95320021460595
scalar Network.dyn_peer[131] 	lookupHopsSig:mean 	28.090909090909
scalar Network.dyn_peer[132] 	lookupTimeSig:mean 	2.0833333333333
scalar Network.dyn_peer[132] 	lookupStabilitySig:mean 	0.95047342490094
scalar Network.dyn_peer[132] 	lookupHopsSig:mean 	19.888888888889
scalar Network.dyn_peer[133] 	lookupTimeSig:mean 	2
scalar Network.dyn_peer[133] 	lookupStabilitySig:mean 	0.90925173200667
scalar Network.dyn_peer[133] 	lookupHopsSig:mean 	19.1
scalar Network.dyn_peer[134] 	lookupTimeSig:mean 	1.6714285714286
scalar Network.dyn_peer[134] 	lookupStabilitySig:mean 	0.93946337709869
scalar Network.dyn_peer[134] 	lookupHopsSig:mean 	15.785714285714
scalar Network.dyn_peer[135] 	lookupTimeSig:mean 	1.66
scalar Network.dyn_peer[135] 	lookupStabilitySig:mean 	0.95622554456349
scalar Network.dyn_peer[135] 	lookupHopsSig:mean 	15.65
scalar Network.dyn_peer[136] 	lookupTimeSig:mean 	1.6933333333333
scalar Network.dyn_peer[136] 	lookupStabilitySig:mean 	0.93817713811683
scalar Network.dyn_peer[136] 	lookupHopsSig:mean 	16
scalar Network.dyn_peer[137] 	lookupTimeSig:mean 	2.8333333333333
scalar Network.dyn_peer[137] 	lookupStabilitySig:mean 	0.93783118226565
scalar Network.dyn_peer[137] 	lookupHopsSig:mean 	27.416666666667
scalar Network.dyn_peer[138] 	lookupTimeSig:mean 	2.2142857142857
scalar Network.dyn_peer[138] 	lookupStabilitySig:mean 	0.91463398188353
scalar Network.dyn_peer[138] 	lookupHopsSig:mean 	21.285714285714
scalar Network.dyn_peer[139] 	lookupTimeSig:mean 	2.8714285714286
scalar Network.dyn_peer[139] 	lookupStabilitySig:mean 	0.93029568929757
scalar Network.dyn_peer[139] 	lookupHopsSig:mean 	27.785714285714
scalar Network.dyn_peer[140] 	lookupTimeSig:mean 	2.9222222222222
scalar Network.dyn_peer[140] 	lookupStabilitySig:mean 	0.90766531663636
scalar Network.dyn_peer[140] 	lookupHopsSig:mean 	28.333333333333
scalar Network.dyn_peer[141] 	lookupTimeSig:mean 	2.4
scalar Network.dyn_peer[141] 	lookupStabilitySig:mean 	0.92126786833008
scalar Network.dyn_peer[141] 	lookupHopsSig:mean 	23.083333333333
scalar Network.dyn_peer[142] 	lookupTimeSig:mean 	2.0818181818182
scalar Network.dyn_peer[142] 	lookupStabilitySig:mean 	0.91859587696804
scalar Network.dyn_peer[142] 	lookupHopsSig:mean 	19.909090909091
scalar Network.dyn_peer[143] 	lookupTimeSig:mean 	1.55
scalar Network.dyn_peer[143] 	lookupStabilitySig:mean 	0.90299753332511
scalar Network.dyn_peer[143] 	lookupHopsSig:mean 	14.666666666667
scalar Network.dyn_peer[144] 	lookupTimeSig:mean 	3.1933333333333
scalar Network.dyn_peer[144] 	lookupStabilitySig:mean 	0.93634619576236
scalar Network.dyn_peer[144] 	lookupHopsSig:mean 	31
scalar Network.dyn_peer[145] 	lookupTimeSig:mean 	2.1
scalar Network.dyn_peer[145] 	lookupStabilitySig:mean 	0.94517129345944
scalar Network.dyn_peer[145] 	lookupHopsSig:mean 	20.052631578947
scalar Network.dyn_peer[146] 	lookupTimeSig:mean 	2.6066666666667
scalar Network.dyn_peer[146] 	lookupStabilitySig:mean 	0.9345299149553
scalar Network.dyn_peer[146] 	lookupHopsSig:mean 	25.133333333333
scalar Network.dyn_peer[147] 	lookupTimeSig:mean 	2.6272727272727
scalar Network.dyn_peer[147] 	lookupStabilitySig:mean 	0.93595642391169
scalar Network.dyn_peer[147] 	lookupHopsSig:mean 	25.363636363636
scalar Network.dyn_peer[148] 	lookupTimeSig:mean 	2.3
scalar Network.dyn_peer[148] 	lookupStabilitySig:mean 	0.94333233891909
scalar Network.dyn_peer[148] 	lookupHopsSig:mean 	22.055555555556
scalar Network.dyn_peer[149] 	lookupTimeSig:mean 	3.2333333333333
scalar Network.dyn_peer[149] 	lookupStabilitySig:mean 	0.9292200236426
scalar Network.dyn_peer[149] 	lookupHopsSig:mean 	31.416666666667
scalar Network.dyn_peer[150] 	lookupTimeSig:mean 	1.875
scalar Network.dyn_peer[150] 	lookupStabilitySig:mean 	0.92897379084025
scalar Network.dyn_peer[150] 	lookupHopsSig:mean 	17.833333333333
scalar Network.dyn_peer[151] 	lookupTimeSig:mean 	2.375
scalar Network.dyn_peer[151] 	lookupStabilitySig:mean 	0.93205405445769
scalar Network.dyn_peer[151] 	lookupHopsSig:mean 	22.875
scalar Network.dyn_peer[152] 	lookupTimeSig:mean 	2.7071428571429
scalar Network.dyn_peer[152] 	lookupStabilitySig:mean 	0.94047571959839
scalar Network.dyn_peer[152] 	lookupHopsSig:mean 	26.142857142857
scalar Network.dyn_peer[153] 	lookupTimeSig:mean 	3.25625
scalar Network.dyn_peer[153] 	lookupStabilitySig:mean 	0.94324219820555
scalar Network.dyn_peer[153] 	lookupHopsSig:mean 	31.625
scalar Network.dyn_peer[154] 	lookupTimeSig:mean 	2.8214285714286
scalar Network.dyn_peer[154] 	lookupStabilitySig:mean 	0.94485527476562
scalar Network.dyn_peer[154] 	lookupHopsSig:mean 	27.285714285714
scalar Network.dyn_peer[155] 	lookupTimeSig:mean 	1.8
scalar Network.dyn_peer[155] 	lookupStabilitySig:mean 	0.94804234317887
scalar Network.dyn_peer[155] 	lookupHopsSig:mean 	17.058823529412
scalar Network.dyn_peer[156] 	lookupTimeSig:mean 	2.4111111111111
scalar Network.dyn_peer[156] 	lookupStabilitySig:mean 	0.90440052209629
scalar Network.dyn_peer[156] 	lookupHopsSig:mean 	23.222222222222
scalar Network.dyn_peer[157] 	lookupTimeSig:mean 	2.0684210526316
scalar Network.dyn_peer[157] 	lookupStabilitySig:mean 	0.94855116545468
scalar Network.dyn_peer[157] 	lookupHopsSig:mean 	19.736842105263
scalar Network.dyn_peer[158] 	lookupTimeSig:mean 	2.74
scalar Network.dyn_peer[158] 	lookupStabilitySig:mean 	0.94804668712119
scalar Network.dyn_peer[158] 	lookupHopsSig:mean 	26.466666666667
scalar Network.dyn_peer[159] 	lookupTimeSig:mean 	2.4857142857143
scalar Network.dyn_peer[159] 	lookupStabilitySig:mean 	0.96267398793827
scalar Network.dyn_peer[159] 	lookupHopsSig:mean 	23.904761904762
scalar Network.dyn_peer[160] 	lookupTimeSig:mean 	2.8111111111111
scalar Network.dyn_peer[160] 	lookupStabilitySig:mean 	0.93837534750087
scalar Network.dyn_peer[160] 	lookupHopsSig:mean 	27.222222222222
scalar Network.dyn_peer[161] 	lookupTimeSig:mean 	2.3142857142857
scalar Network.dyn_peer[161] 	lookupStabilitySig:mean 	0.9318659942198
scalar Network.dyn_peer[161] 	lookupHopsSig:mean 	22.285714285714
scalar Network.dyn_peer[162] 	lookupTimeSig:mean 	1.35
scalar Network.dyn_peer[162] 	lookupStabilitySig:mean 	0.92718569617718
scalar Network.dyn_peer[162] 	lookupHopsSig:mean 	12.6
scalar Network.dyn_peer[163] 	lookupTimeSig:mean 	2.6
scalar Network.dyn_peer[163] 	lookupStabilitySig:mean 	0.94987333776723
scalar Network.dyn_peer[163] 	lookupHopsSig:mean 	25.052631578947
scalar Network.dyn_peer[164] 	lookupTimeSig:mean 	3.075
scalar Network.dyn_peer[164] 	lookupStabilitySig:mean 	0.95317273132969
scalar Network.dyn_peer[164] 	lookupHopsSig:mean 	29.8
scalar Network.dyn_peer[165] 	lookupTimeSig:mean 	2.86
scalar Network.dyn_peer[165] 	lookupStabilitySig:mean 	0.92971202991903
scalar Network.dyn_peer[165] 	lookupHopsSig:mean 	27.7
scalar Network.dyn_peer[166] 	lookupTimeSig:mean 	2.6285714285714
scalar Network.dyn_peer[166] 	lookupStabilitySig:mean 	0.94190956838429
scalar Network.dyn_peer[166] 	lookupHopsSig:mean 	25.357142857143
scalar Network.dyn_peer[167] 	lookupTimeSig:mean 	2.9866666666667
scalar Network.dyn_peer[167] 	lookupStabilitySig:mean 	0.94503452982754
scalar Network.dyn_peer[167] 	lookupHopsSig:mean 	28.933333333333
scalar Network.dyn_peer[168] 	lookupTimeSig:mean 	2.7454545454545
scalar Network.dyn_peer[168] 	lookupStabilitySig:mean 	0.9254356214184
scalar Network.dyn_peer[168] 	lookupHopsSig:mean 	26.545454545455
scalar Network.dyn_peer[169] 	lookupTimeSig:mean 	1.8357142857143
scalar Network.dyn_peer[169] 	lookupStabilitySig:mean 	0.93965347909502
scalar Network.dyn_peer[169] 	lookupHopsSig:mean 	17.428571428571
scalar Network.dyn_peer[170] 	lookupTimeSig:mean 	2.9294117647059
scalar Network.dyn_peer[170] 	lookupStabilitySig:mean 	0.94171034702209
scalar Network.dyn_peer[170] 	lookupHopsSig:mean 	28.352941176471
scalar Network.dyn_peer[171] 	lookupTimeSig:mean 	2.3428571428571
scalar Network.dyn_peer[171] 	lookupStabilitySig:mean 	0.91960936904486
scalar Network.dyn_peer[171] 	lookupHopsSig:mean 	22.571428571429
scalar Network.dyn_peer[172] 	lookupTimeSig:mean 	1.9066666666667
scalar Network.dyn_peer[172] 	lookupStabilitySig:mean 	0.95215781523536
scalar Network.dyn_peer[172] 	lookupHopsSig:mean 	18.133333333333
scalar Network.dyn_peer[173] 	lookupTimeSig:mean 	4.8125
scalar Network.dyn_peer[173] 	lookupStabilitySig:mean 	0.94580772652989
scalar Network.dyn_peer[173] 	lookupHopsSig:mean 	47.1875
scalar Network.dyn_peer[174] 	lookupTimeSig:mean 	2.31
scalar Network.dyn_peer[174] 	lookupStabilitySig:mean 	0.93348509906791
scalar Network.dyn_peer[174] 	lookupHopsSig:mean 	22.2
scalar Network.dyn_peer[175] 	lookupTimeSig:mean 	3.275
scalar Network.dyn_peer[175] 	lookupStabilitySig:mean 	0.93022703848934
scalar Network.dyn_peer[175] 	lookupHopsSig:mean 	31.833333333333
scalar Network.dyn_peer[176] 	lookupTimeSig:mean 	3.5333333333333
scalar Network.dyn_peer[176] 	lookupStabilitySig:mean 	0.94316315924128
scalar Network.dyn_peer[176] 	lookupHopsSig:mean 	34.4
scalar Network.dyn_peer[177] 	lookupTimeSig:mean 	2.4818181818182
scalar Network.dyn_peer[177] 	lookupStabilitySig:mean 	0.9355939576741
scalar Network.dyn_peer[177] 	lookupHopsSig:mean 	23.909090909091
scalar Network.dyn_peer[178] 	lookupTimeSig:mean 	3.9
scalar Network.dyn_peer[178] 	lookupStabilitySig:mean 	0.92193333857826
scalar Network.dyn_peer[178] 	lookupHopsSig:mean 	38.142857142857
scalar Network.dyn_peer[179] 	lookupTimeSig:mean 	2.9538461538462
scalar Network.dyn_peer[179] 	lookupStabilitySig:mean 	0.94589665224059
scalar Network.dyn_peer[179] 	lookupHopsSig:mean 	28.615384615385
scalar Network.dyn_peer[180] 	lookupTimeSig:mean 	2.2125
scalar Network.dyn_peer[180] 	lookupStabilitySig:mean 	0.95072693104157
scalar Network.dyn_peer[180] 	lookupHopsSig:mean 	21.1875
scalar Network.dyn_peer[181] 	lookupTimeSig:mean 	2.175
scalar Network.dyn_peer[181] 	lookupStabilitySig:mean 	0.93706358325047
scalar Network.dyn_peer[181] 	lookupHopsSig:mean 	20.833333333333
scalar Network.dyn_peer[182] 	lookupTimeSig:mean 	1.86875
scalar Network.dyn_peer[182] 	lookupStabilitySig:mean 	0.94577535818098
scalar Network.dyn_peer[182] 	lookupHopsSig:mean 	17.75
scalar Network.dyn_peer[183] 	lookupTimeSig:mean 	2.0666666666667
scalar Network.dyn_peer[183] 	lookupStabilitySig:mean 	0.93534938049399
scalar Network.dyn_peer[183] 	lookupHopsSig:mean 	19.777777777778
scalar Network.dyn_peer[184] 	lookupTimeSig:mean 	2.98
scalar Network.dyn_peer[184] 	lookupStabilitySig:mean 	0.92961736032739
scalar Network.dyn_peer[184] 	lookupHopsSig:mean 	28.9
scalar Network.dyn_peer[185] 	lookupTimeSig:mean 	3.3333333333333
scalar Network.dyn_peer[185] 	lookupStabilitySig:mean 	0.92073167757028
scalar Network.dyn_peer[185] 	lookupHopsSig:mean 	32.444444444444
scalar Network.dyn_peer[186] 	lookupTimeSig:mean 	2.85
scalar Network.dyn_peer[186] 	lookupStabilitySig:mean 	0.93834733528395
scalar Network.dyn_peer[186] 	lookupHopsSig:mean 	27.583333333333
scalar Network.dyn_peer[187] 	lookupTimeSig:mean 	2.0333333333333
scalar Network.dyn_peer[187] 	lookupStabilitySig:mean 	0.94662140031966
scalar Network.dyn_peer[187] 	lookupHopsSig:mean 	19.4
scalar Network.dyn_peer[188] 	lookupTimeSig:mean 	3.14
scalar Network.dyn_peer[188] 	lookupStabilitySig:mean 	0.95698616271839
scalar Network.dyn_peer[188] 	lookupHopsSig:mean 	30.45
scalar Network.dyn_peer[189] 	lookupTimeSig:mean 	1.78125
scalar Network.dyn_peer[189] 	lookupStabilitySig:mean 	0.95103760599159
scalar Network.dyn_peer[189] 	lookupHopsSig:mean 	16.875
scalar Network.dyn_peer[190] 	lookupTimeSig:mean 	2.3222222222222
scalar Network.dyn_peer[190] 	lookupStabilitySig:mean 	0.9195576891717
scalar Network.dyn_peer[190] 	lookupHopsSig:mean 	22.333333333333
scalar Network.dyn_peer[191] 	lookupTimeSig:mean 	2.86
scalar Network.dyn_peer[191] 	lookupStabilitySig:mean 	0.95709695169935
scalar Network.dyn_peer[191] 	lookupHopsSig:mean 	27.65
scalar Network.dyn_peer[192] 	lookupTimeSig:mean 	1.9526315789474
scalar Network.dyn_peer[192] 	lookupStabilitySig:mean 	0.96503156179097
scalar Network.dyn_peer[192] 	lookupHopsSig:mean 	18.578947368421
scalar Network.dyn_peer[193] 	lookupTimeSig:mean 	2.04
scalar Network.dyn_peer[193] 	lookupStabilitySig:mean 	0.94064823938534
scalar Network.dyn_peer[193] 	lookupHopsSig:mean 	19.5
scalar Network.dyn_peer[194] 	lookupTimeSig:mean 	2.38
scalar Network.dyn_peer[194] 	lookupStabilitySig:mean 	0.95911496649496
scalar Network.dyn_peer[194] 	lookupHopsSig:mean 	22.85
scalar Network.dyn_peer[195] 	lookupTimeSig:mean 	2.2466666666667
scalar Network.dyn_peer[195] 	lookupStabilitySig:mean 	0.94762176228687
scalar Network.dyn_peer[195] 	lookupHopsSig:mean 	21.533333333333
scalar Network.dyn_peer[196] 	lookupTimeSig:mean 	2.9083333333333
scalar Network.dyn_peer[196] 	lookupStabilitySig:mean 	0.94649602399052
scalar Network.dyn_peer[196] 	lookupHopsSig:mean 	28.166666666667
scalar Network.dyn_peer[197] 	lookupTimeSig:mean 	2.1846153846154
scalar Network.dyn_peer[197] 	lookupStabilitySig:mean 	0.94374860450625
scalar Network.dyn_peer[197] 	lookupHopsSig:mean 	20.923076923077
scalar Network.dyn_peer[198] 	lookupTimeSig:mean 	2.525
scalar Network.dyn_peer[198] 	lookupStabilitySig:mean 	0.95506893406855
scalar Network.dyn_peer[198] 	lookupHopsSig:mean 	24.3
scalar Network.dyn_peer[199] 	lookupTimeSig:mean 	2.78
scalar Network.dyn_peer[199] 	lookupStabilitySig:mean 	0.94518081452698
scalar Network.dyn_peer[199] 	lookupHopsSig:mean 	26.866666666667
scalar Network.dyn_peer[200] 	lookupTimeSig:mean 	1.8133333333333
scalar Network.dyn_peer[200] 	lookupStabilitySig:mean 	0.94587079398334
scalar Network.dyn_peer[200] 	lookupHopsSig:mean 	17.2
scalar Network.dyn_peer[201] 	lookupTimeSig:mean 	2.5684210526316
scalar Network.dyn_peer[201] 	lookupStabilitySig:mean 	0.95438882427315
scalar Network.dyn_peer[201] 	lookupHopsSig:mean 	24.736842105263
scalar Network.dyn_peer[202] 	lookupTimeSig:mean 	3.2166666666667
scalar Network.dyn_peer[202] 	lookupStabilitySig:mean 	0.952337547283
scalar Network.dyn_peer[202] 	lookupHopsSig:mean 	31.222222222222
scalar Network.dyn_peer[203] 	lookupTimeSig:mean 	2.7555555555556
scalar Network.dyn_peer[203] 	lookupStabilitySig:mean 	0.95361657788291
scalar Network.dyn_peer[203] 	lookupHopsSig:mean 	26.611111111111
scalar Network.dyn_peer[204] 	lookupTimeSig:mean 	1.7
scalar Network.dyn_peer[204] 	lookupStabilitySig:mean 	0.94895956071559
scalar Network.dyn_peer[204] 	lookupHopsSig:mean 	16.0625
scalar Network.dyn_peer[205] 	lookupTimeSig:mean 	2.5357142857143
scalar Network.dyn_peer[205] 	lookupStabilitySig:mean 	0.94749381369911
scalar Network.dyn_peer[205] 	lookupHopsSig:mean 	24.428571428571
scalar Network.dyn_peer[206] 	lookupTimeSig:mean 	2.3357142857143
scalar Network.dyn_peer[206] 	lookupStabilitySig:mean 	0.9507635331247
scalar Network.dyn_peer[206] 	lookupHopsSig:mean 	22.428571428571
scalar Network.dyn_peer[207] 	lookupTimeSig:mean 	2.7380952380952
scalar Network.dyn_peer[207] 	lookupStabilitySig:mean 	0.95796076403487
scalar Network.dyn_peer[207] 	lookupHopsSig:mean 	26.428571428571
scalar Network.dyn_peer[208] 	lookupTimeSig:mean 	2.4416666666667
scalar Network.dyn_peer[208] 	lookupStabilitySig:mean 	0.94390573631972
scalar Network.dyn_peer[208] 	lookupHopsSig:mean 	23.5
scalar Network.dyn_peer[209] 	lookupTimeSig:mean 	2.7695652173913
scalar Network.dyn_peer[209] 	lookupStabilitySig:mean 	0.96134858666514
scalar Network.dyn_peer[209] 	lookupHopsSig:mean 	26.739130434783
scalar Network.dyn_peer[210] 	lookupTimeSig:mean 	2.8454545454545
scalar Network.dyn_peer[210] 	lookupStabilitySig:mean 	0.93396090411327
scalar Network.dyn_peer[210] 	lookupHopsSig:mean 	27.545454545455
scalar Network.dyn_peer[211] 	lookupTimeSig:mean 	2.6954545454545
scalar Network.dyn_peer[211] 	lookupStabilitySig:mean 	0.96290916693397
scalar Network.dyn_peer[211] 	lookupHopsSig:mean 	26
scalar Network.dyn_peer[212] 	lookupTimeSig:mean 	2.8533333333333
scalar Network.dyn_peer[212] 	lookupStabilitySig:mean 	0.95229593999684
scalar Network.dyn_peer[212] 	lookupHopsSig:mean 	27.6
scalar Network.dyn_peer[213] 	lookupTimeSig:mean 	3.2357142857143
scalar Network.dyn_peer[213] 	lookupStabilitySig:mean 	0.95291433686257
scalar Network.dyn_peer[213] 	lookupHopsSig:mean 	31.428571428571
scalar Network.dyn_peer[214] 	lookupTimeSig:mean 	2.6529411764706
scalar Network.dyn_peer[214] 	lookupStabilitySig:mean 	0.94784226352075
scalar Network.dyn_peer[214] 	lookupHopsSig:mean 	25.588235294118
scalar Network.dyn_peer[215] 	lookupTimeSig:mean 	2.4904761904762
scalar Network.dyn_peer[215] 	lookupStabilitySig:mean 	0.96470354995108
scalar Network.dyn_peer[215] 	lookupHopsSig:mean 	23.952380952381
scalar Network.dyn_peer[216] 	lookupTimeSig:mean 	2.1777777777778
scalar Network.dyn_peer[216] 	lookupStabilitySig:mean 	0.93236876962086
scalar Network.dyn_peer[216] 	lookupHopsSig:mean 	20.888888888889
scalar Network.dyn_peer[217] 	lookupTimeSig:mean 	2.1
scalar Network.dyn_peer[217] 	lookupStabilitySig:mean 	0.96447055121618
scalar Network.dyn_peer[217] 	lookupHopsSig:mean 	20.047619047619
scalar Network.dyn_peer[218] 	lookupTimeSig:mean 	2.5666666666667
scalar Network.dyn_peer[218] 	lookupStabilitySig:mean 	0.95348172982534
scalar Network.dyn_peer[218] 	lookupHopsSig:mean 	24.733333333333
scalar Network.dyn_peer[219] 	lookupTimeSig:mean 	3.14
scalar Network.dyn_peer[219] 	lookupStabilitySig:mean 	0.95150382823
scalar Network.dyn_peer[219] 	lookupHopsSig:mean 	30.466666666667
scalar Network.dyn_peer[220] 	lookupTimeSig:mean 	2.8611111111111
scalar Network.dyn_peer[220] 	lookupStabilitySig:mean 	0.95643349498924
scalar Network.dyn_peer[220] 	lookupHopsSig:mean 	27.666666666667
scalar Network.dyn_peer[221] 	lookupTimeSig:mean 	2.4384615384615
scalar Network.dyn_peer[221] 	lookupStabilitySig:mean 	0.95100684929639
scalar Network.dyn_peer[221] 	lookupHopsSig:mean 	23.461538461538
scalar Network.dyn_peer[222] 	lookupTimeSig:mean 	2.1625
scalar Network.dyn_peer[222] 	lookupStabilitySig:mean 	0.95515048320522
scalar Network.dyn_peer[222] 	lookupHopsSig:mean 	20.6875
scalar Network.dyn_peer[223] 	lookupTimeSig:mean 	2.7
scalar Network.dyn_peer[223] 	lookupStabilitySig:mean 	0.94844384218699
scalar Network.dyn_peer[223] 	lookupHopsSig:mean 	26.071428571429
scalar Network.dyn_peer[224] 	lookupTimeSig:mean 	2.8230769230769
scalar Network.dyn_peer[224] 	lookupStabilitySig:mean 	0.94786836919733
scalar Network.dyn_peer[224] 	lookupHopsSig:mean 	27.307692307692
scalar Network.dyn_peer[225] 	lookupTimeSig:mean 	2.6833333333333
scalar Network.dyn_peer[225] 	lookupStabilitySig:mean 	0.90623800192649
scalar Network.dyn_peer[225] 	lookupHopsSig:mean 	26
scalar Network.dyn_peer[226] 	lookupTimeSig:mean 	2.4642857142857
scalar Network.dyn_peer[226] 	lookupStabilitySig:mean 	0.96223114314489
scalar Network.dyn_peer[226] 	lookupHopsSig:mean 	23.714285714286
scalar Network.dyn_peer[227] 	lookupTimeSig:mean 	2.2958333333333
scalar Network.dyn_peer[227] 	lookupStabilitySig:mean 	0.96746449441222
scalar Network.dyn_peer[227] 	lookupHopsSig:mean 	22
scalar Network.dyn_peer[228] 	lookupTimeSig:mean 	1.9727272727273
scalar Network.dyn_peer[228] 	lookupStabilitySig:mean 	0.93656009685417
scalar Network.dyn_peer[228] 	lookupHopsSig:mean 	18.818181818182
scalar Network.dyn_peer[229] 	lookupTimeSig:mean 	1.8722222222222
scalar Network.dyn_peer[229] 	lookupStabilitySig:mean 	0.96446049170724
scalar Network.dyn_peer[229] 	lookupHopsSig:mean 	17.777777777778
scalar Network.dyn_peer[230] 	lookupTimeSig:mean 	1.68
scalar Network.dyn_peer[230] 	lookupStabilitySig:mean 	0.9543782165274
scalar Network.dyn_peer[230] 	lookupHopsSig:mean 	15.866666666667
scalar Network.dyn_peer[231] 	lookupTimeSig:mean 	2.6923076923077
scalar Network.dyn_peer[231] 	lookupStabilitySig:mean 	0.9446054216331
scalar Network.dyn_peer[231] 	lookupHopsSig:mean 	26
scalar Network.dyn_peer[232] 	lookupTimeSig:mean 	1.9846153846154
scalar Network.dyn_peer[232] 	lookupStabilitySig:mean 	0.95456698135688
scalar Network.dyn_peer[232] 	lookupHopsSig:mean 	18.923076923077
scalar Network.dyn_peer[233] 	lookupTimeSig:mean 	2.38125
scalar Network.dyn_peer[233] 	lookupStabilitySig:mean 	0.96049166953162
scalar Network.dyn_peer[233] 	lookupHopsSig:mean 	22.875
scalar Network.dyn_peer[234] 	lookupTimeSig:mean 	1.7888888888889
scalar Network.dyn_peer[234] 	lookupStabilitySig:mean 	0.93336156031324
scalar Network.dyn_peer[234] 	lookupHopsSig:mean 	17
scalar Network.dyn_peer[235] 	lookupTimeSig:mean 	2.7117647058824
scalar Network.dyn_peer[235] 	lookupStabilitySig:mean 	0.95520916216842
scalar Network.dyn_peer[235] 	lookupHopsSig:mean 	26.176470588235
scalar Network.dyn_peer[236] 	lookupTimeSig:mean 	2.8083333333333
scalar Network.dyn_peer[236] 	lookupStabilitySig:mean 	0.94102685976153
scalar Network.dyn_peer[236] 	lookupHopsSig:mean 	27.166666666667
scalar Network.dyn_peer[237] 	lookupTimeSig:mean 	2.775
scalar Network.dyn_peer[237] 	lookupStabilitySig:mean 	0.95670462748967
scalar Network.dyn_peer[237] 	lookupHopsSig:mean 	26.8125
scalar Network.dyn_peer[238] 	lookupTimeSig:mean 	2.3833333333333
scalar Network.dyn_peer[238] 	lookupStabilitySig:mean 	0.9439280651665
scalar Network.dyn_peer[238] 	lookupHopsSig:mean 	22.916666666667
scalar Network.dyn_peer[239] 	lookupTimeSig:mean 	2.2625
scalar Network.dyn_peer[239] 	lookupStabilitySig:mean 	0.93753975338768
scalar Network.dyn_peer[239] 	lookupHopsSig:mean 	21.75
scalar Network.dyn_peer[240] 	lookupTimeSig:mean 	2.9733333333333
scalar Network.dyn_peer[240] 	lookupStabilitySig:mean 	0.95716047392537
scalar Network.dyn_peer[240] 	lookupHopsSig:mean 	28.8
scalar Network.dyn_peer[241] 	lookupTimeSig:mean 	2.7190476190476
scalar Network.dyn_peer[241] 	lookupStabilitySig:mean 	0.96241399058185
scalar Network.dyn_peer[241] 	lookupHopsSig:mean 	26.238095238095
scalar Network.dyn_peer[242] 	lookupTimeSig:mean 	2.1388888888889
scalar Network.dyn_peer[242] 	lookupStabilitySig:mean 	0.95555857817332
scalar Network.dyn_peer[242] 	lookupHopsSig:mean 	20.444444444444
scalar Network.dyn_peer[243] 	lookupTimeSig:mean 	2.5
scalar Network.dyn_peer[243] 	lookupStabilitySig:mean 	0.95588391323884
scalar Network.dyn_peer[243] 	lookupHopsSig:mean 	24.066666666667
scalar Network.dyn_peer[244] 	lookupTimeSig:mean 	1.475
scalar Network.dyn_peer[244] 	lookupStabilitySig:mean 	0.92831402365118
scalar Network.dyn_peer[244] 	lookupHopsSig:mean 	14
scalar Network.dyn_peer[245] 	lookupTimeSig:mean 	1.9125
scalar Network.dyn_peer[245] 	lookupStabilitySig:mean 	0.93242117087357
scalar Network.dyn_peer[245] 	lookupHopsSig:mean 	18.25
scalar Network.dyn_peer[246] 	lookupTimeSig:mean 	1.8
scalar Network.dyn_peer[246] 	lookupStabilitySig:mean 	0.96205166787175
scalar Network.dyn_peer[246] 	lookupHopsSig:mean 	17.071428571429
scalar Network.dyn_peer[247] 	lookupTimeSig:mean 	1.95
scalar Network.dyn_peer[247] 	lookupStabilitySig:mean 	0.92919673584402
scalar Network.dyn_peer[247] 	lookupHopsSig:mean 	18.625
scalar Network.dyn_peer[248] 	lookupTimeSig:mean 	2.9333333333333
scalar Network.dyn_peer[248] 	lookupStabilitySig:mean 	0.95143579916718
scalar Network.dyn_peer[248] 	lookupHopsSig:mean 	28.416666666667
scalar Network.dyn_peer[249] 	lookupTimeSig:mean 	2.6333333333333
scalar Network.dyn_peer[249] 	lookupStabilitySig:mean 	0.94251973787323
scalar Network.dyn_peer[249] 	lookupHopsSig:mean 	25.416666666667
scalar Network.dyn_peer[250] 	lookupTimeSig:mean 	2.8285714285714
scalar Network.dyn_peer[250] 	lookupStabilitySig:mean 	0.9511182368733
scalar Network.dyn_peer[250] 	lookupHopsSig:mean 	27.357142857143
scalar Network.dyn_peer[251] 	lookupTimeSig:mean 	2.43
scalar Network.dyn_peer[251] 	lookupStabilitySig:mean 	0.95607527070679
scalar Network.dyn_peer[251] 	lookupHopsSig:mean 	23.4
scalar Network.dyn_peer[252] 	lookupTimeSig:mean 	3.2454545454545
scalar Network.dyn_peer[252] 	lookupStabilitySig:mean 	0.94547913485969
scalar Network.dyn_peer[252] 	lookupHopsSig:mean 	31.545454545455
scalar Network.dyn_peer[253] 	lookupTimeSig:mean 	3.0307692307692
scalar Network.dyn_peer[253] 	lookupStabilitySig:mean 	0.95531174973943
scalar Network.dyn_peer[253] 	lookupHopsSig:mean 	29.384615384615
scalar Network.dyn_peer[254] 	lookupTimeSig:mean 	1.7538461538462
scalar Network.dyn_peer[254] 	lookupStabilitySig:mean 	0.95068681060981
scalar Network.dyn_peer[254] 	lookupHopsSig:mean 	16.615384615385
scalar Network.dyn_peer[255] 	lookupTimeSig:mean 	2.325
scalar Network.dyn_peer[255] 	lookupStabilitySig:mean 	0.94581286046499
scalar Network.dyn_peer[255] 	lookupHopsSig:mean 	22.333333333333
scalar Network.dyn_peer[256] 	lookupTimeSig:mean 	2.0909090909091
scalar Network.dyn_peer[256] 	lookupStabilitySig:mean 	0.94605079676363
scalar Network.dyn_peer[256] 	lookupHopsSig:mean 	20
scalar Network.dyn_peer[257] 	lookupTimeSig:mean 	2.2583333333333
scalar Network.dyn_peer[257] 	lookupStabilitySig:mean 	0.94323843911601
scalar Network.dyn_peer[257] 	lookupHopsSig:mean 	21.666666666667
scalar Network.dyn_peer[258] 	lookupTimeSig:mean 	3.0333333333333
scalar Network.dyn_peer[258] 	lookupStabilitySig:mean 	0.93120235246089
scalar Network.dyn_peer[258] 	lookupHopsSig:mean 	29.444444444444
scalar Network.dyn_peer[259] 	lookupTimeSig:mean 	1.92
scalar Network.dyn_peer[259] 	lookupStabilitySig:mean 	0.95437306966633
scalar Network.dyn_peer[259] 	lookupHopsSig:mean 	18.3
scalar Network.dyn_peer[260] 	lookupTimeSig:mean 	1.55
scalar Network.dyn_peer[260] 	lookupStabilitySig:mean 	0.94074424059363
scalar Network.dyn_peer[260] 	lookupHopsSig:mean 	14.625
scalar Network.dyn_peer[261] 	lookupTimeSig:mean 	2.02
scalar Network.dyn_peer[261] 	lookupStabilitySig:mean 	0.94657746106386
scalar Network.dyn_peer[261] 	lookupHopsSig:mean 	19.3
scalar Network.dyn_peer[262] 	lookupTimeSig:mean 	3.6
scalar Network.dyn_peer[262] 	lookupStabilitySig:mean 	0.93837238933581
scalar Network.dyn_peer[262] 	lookupHopsSig:mean 	35.083333333333
scalar Network.dyn_peer[263] 	lookupTimeSig:mean 	2.8263157894737
scalar Network.dyn_peer[263] 	lookupStabilitySig:mean 	0.96175518095199
scalar Network.dyn_peer[263] 	lookupHopsSig:mean 	27.315789473684
scalar Network.dyn_peer[264] 	lookupTimeSig:mean 	2.1333333333333
scalar Network.dyn_peer[264] 	lookupStabilitySig:mean 	0.92772045897113
scalar Network.dyn_peer[264] 	lookupHopsSig:mean 	20.444444444444
scalar Network.dyn_peer[265] 	lookupTimeSig:mean 	2.8666666666667
scalar Network.dyn_peer[265] 	lookupStabilitySig:mean 	0.9423426722642
scalar Network.dyn_peer[265] 	lookupHopsSig:mean 	27.75
scalar Network.dyn_peer[266] 	lookupTimeSig:mean 	1.8933333333333
scalar Network.dyn_peer[266] 	lookupStabilitySig:mean 	0.95444729756564
scalar Network.dyn_peer[266] 	lookupHopsSig:mean 	18
scalar Network.dyn_peer[267] 	lookupTimeSig:mean 	2.3153846153846
scalar Network.dyn_peer[267] 	lookupStabilitySig:mean 	0.97075958481023
scalar Network.dyn_peer[267] 	lookupHopsSig:mean 	22.192307692308
scalar Network.dyn_peer[268] 	lookupTimeSig:mean 	2.485
scalar Network.dyn_peer[268] 	lookupStabilitySig:mean 	0.9634699277638
scalar Network.dyn_peer[268] 	lookupHopsSig:mean 	23.9
scalar Network.dyn_peer[269] 	lookupTimeSig:mean 	2.84
scalar Network.dyn_peer[269] 	lookupStabilitySig:mean 	0.95635606068342
scalar Network.dyn_peer[269] 	lookupHopsSig:mean 	27.466666666667
scalar Network.dyn_peer[270] 	lookupTimeSig:mean 	2.9636363636364
scalar Network.dyn_peer[270] 	lookupStabilitySig:mean 	0.97202725821725
scalar Network.dyn_peer[270] 	lookupHopsSig:mean 	28.681818181818
scalar Network.dyn_peer[271] 	lookupTimeSig:mean 	2.7333333333333
scalar Network.dyn_peer[271] 	lookupStabilitySig:mean 	0.9505989754883
scalar Network.dyn_peer[271] 	lookupHopsSig:mean 	26.416666666667
scalar Network.dyn_peer[272] 	lookupTimeSig:mean 	3.5125
scalar Network.dyn_peer[272] 	lookupStabilitySig:mean 	0.94247430923861
scalar Network.dyn_peer[272] 	lookupHopsSig:mean 	34.25
scalar Network.dyn_peer[273] 	lookupTimeSig:mean 	1.7727272727273
scalar Network.dyn_peer[273] 	lookupStabilitySig:mean 	0.94924435408955
scalar Network.dyn_peer[273] 	lookupHopsSig:mean 	16.818181818182
scalar Network.dyn_peer[274] 	lookupTimeSig:mean 	2.5428571428571
scalar Network.dyn_peer[274] 	lookupStabilitySig:mean 	0.93495461397937
scalar Network.dyn_peer[274] 	lookupHopsSig:mean 	24.571428571429
scalar Network.dyn_peer[275] 	lookupTimeSig:mean 	4.0375
scalar Network.dyn_peer[275] 	lookupStabilitySig:mean 	0.93274481676053
scalar Network.dyn_peer[275] 	lookupHopsSig:mean 	39.5
scalar Network.dyn_peer[276] 	lookupTimeSig:mean 	2.41875
scalar Network.dyn_peer[276] 	lookupStabilitySig:mean 	0.96462306764442
scalar Network.dyn_peer[276] 	lookupHopsSig:mean 	23.25
scalar Network.dyn_peer[277] 	lookupTimeSig:mean 	1.3
scalar Network.dyn_peer[277] 	lookupStabilitySig:mean 	0.92514972575009
scalar Network.dyn_peer[277] 	lookupHopsSig:mean 	12.2
scalar Network.dyn_peer[278] 	lookupTimeSig:mean 	1.14
scalar Network.dyn_peer[278] 	lookupStabilitySig:mean 	0.91642967760563
scalar Network.dyn_peer[278] 	lookupHopsSig:mean 	10.6
scalar Network.dyn_peer[279] 	lookupTimeSig:mean 	1.9538461538462
scalar Network.dyn_peer[279] 	lookupStabilitySig:mean 	0.95508869241278
scalar Network.dyn_peer[279] 	lookupHopsSig:mean 	18.615384615385
scalar Network.dyn_peer[280] 	lookupTimeSig:mean 	2.075
scalar Network.dyn_peer[280] 	lookupStabilitySig:mean 	0.92773771286011
scalar Network.dyn_peer[280] 	lookupHopsSig:mean 	19.875
scalar Network.dyn_peer[281] 	lookupTimeSig:mean 	2.9428571428571
scalar Network.dyn_peer[281] 	lookupStabilitySig:mean 	0.94034244911745
scalar Network.dyn_peer[281] 	lookupHopsSig:mean 	28.571428571429
scalar Network.dyn_peer[282] 	lookupTimeSig:mean 	2.4181818181818
scalar Network.dyn_peer[282] 	lookupStabilitySig:mean 	0.94625877872617
scalar Network.dyn_peer[282] 	lookupHopsSig:mean 	23.272727272727
scalar Network.dyn_peer[283] 	lookupTimeSig:mean 	1.8357142857143
scalar Network.dyn_peer[283] 	lookupStabilitySig:mean 	0.95903055353223
scalar Network.dyn_peer[283] 	lookupHopsSig:mean 	17.428571428571
scalar Network.dyn_peer[284] 	lookupTimeSig:mean 	3.1222222222222
scalar Network.dyn_peer[284] 	lookupStabilitySig:mean 	0.95948370623713
scalar Network.dyn_peer[284] 	lookupHopsSig:mean 	30.277777777778
scalar Network.dyn_peer[285] 	lookupTimeSig:mean 	2.05
scalar Network.dyn_peer[285] 	lookupStabilitySig:mean 	0.9499369491435
scalar Network.dyn_peer[285] 	lookupHopsSig:mean 	19.583333333333
scalar Network.dyn_peer[286] 	lookupTimeSig:mean 	1.8066666666667
scalar Network.dyn_peer[286] 	lookupStabilitySig:mean 	0.95852860091254
scalar Network.dyn_peer[286] 	lookupHopsSig:mean 	17.133333333333
scalar Network.dyn_peer[287] 	lookupTimeSig:mean 	2.8714285714286
scalar Network.dyn_peer[287] 	lookupStabilitySig:mean 	0.96492836142092
scalar Network.dyn_peer[287] 	lookupHopsSig:mean 	27.857142857143
scalar Network.dyn_peer[288] 	lookupTimeSig:mean 	2.9214285714286
scalar Network.dyn_peer[288] 	lookupStabilitySig:mean 	0.96398951214672
scalar Network.dyn_peer[288] 	lookupHopsSig:mean 	28.285714285714
scalar Network.dyn_peer[289] 	lookupTimeSig:mean 	1.9833333333333
scalar Network.dyn_peer[289] 	lookupStabilitySig:mean 	0.92944008205086
scalar Network.dyn_peer[289] 	lookupHopsSig:mean 	19
scalar Network.dyn_peer[290] 	lookupTimeSig:mean 	2.8333333333333
scalar Network.dyn_peer[290] 	lookupStabilitySig:mean 	0.94687269503872
scalar Network.dyn_peer[290] 	lookupHopsSig:mean 	27.444444444444
scalar Network.dyn_peer[291] 	lookupTimeSig:mean 	3.0555555555556
scalar Network.dyn_peer[291] 	lookupStabilitySig:mean 	0.95916833264831
scalar Network.dyn_peer[291] 	lookupHopsSig:mean 	29.611111111111
scalar Network.dyn_peer[292] 	lookupTimeSig:mean 	2.6818181818182
scalar Network.dyn_peer[292] 	lookupStabilitySig:mean 	0.95154466124421
scalar Network.dyn_peer[292] 	lookupHopsSig:mean 	25.909090909091
scalar Network.dyn_peer[293] 	lookupTimeSig:mean 	2.9
scalar Network.dyn_peer[293] 	lookupStabilitySig:mean 	0.9403340537101
scalar Network.dyn_peer[293] 	lookupHopsSig:mean 	28.125
scalar Network.dyn_peer[294] 	lookupTimeSig:mean 	2.6125
scalar Network.dyn_peer[294] 	lookupStabilitySig:mean 	0.95628122269409
scalar Network.dyn_peer[294] 	lookupHopsSig:mean 	25.25
scalar Network.dyn_peer[295] 	lookupTimeSig:mean 	2.24
scalar Network.dyn_peer[295] 	lookupStabilitySig:mean 	0.96376866037026
scalar Network.dyn_peer[295] 	lookupHopsSig:mean 	21.45
scalar Network.dyn_peer[296] 	lookupTimeSig:mean 	3.4076923076923
scalar Network.dyn_peer[296] 	lookupStabilitySig:mean 	0.95440497249365
scalar Network.dyn_peer[296] 	lookupHopsSig:mean 	33.153846153846
scalar Network.dyn_peer[297] 	lookupTimeSig:mean 	1.9111111111111
scalar Network.dyn_peer[297] 	lookupStabilitySig:mean 	0.94192174863484
scalar Network.dyn_peer[297] 	lookupHopsSig:mean 	18.222222222222
scalar Network.dyn_peer[298] 	lookupTimeSig:mean 	2.2833333333333
scalar Network.dyn_peer[298] 	lookupStabilitySig:mean 	0.92394592255975
scalar Network.dyn_peer[298] 	lookupHopsSig:mean 	22
scalar Network.dyn_peer[299] 	lookupTimeSig:mean 	2.8588235294118
scalar Network.dyn_peer[299] 	lookupStabilitySig:mean 	0.95725116760449
scalar Network.dyn_peer[299] 	lookupHopsSig:mean 	27.647058823529
scalar Network.dyn_peer[300] 	lookupTimeSig:mean 	1.5
scalar Network.dyn_peer[300] 	lookupStabilitySig:mean 	0.96461925774135
scalar Network.dyn_peer[300] 	lookupHopsSig:mean 	14.090909090909
scalar Network.dyn_peer[301] 	lookupTimeSig:mean 	2.8352941176471
scalar Network.dyn_peer[301] 	lookupStabilitySig:mean 	0.96255047737128
scalar Network.dyn_peer[301] 	lookupHopsSig:mean 	27.411764705882
scalar Network.dyn_peer[302] 	lookupTimeSig:mean 	2.0470588235294
scalar Network.dyn_peer[302] 	lookupStabilitySig:mean 	0.96406552613959
scalar Network.dyn_peer[302] 	lookupHopsSig:mean 	19.529411764706
scalar Network.dyn_peer[303] 	lookupTimeSig:mean 	2.8866666666667
scalar Network.dyn_peer[303] 	lookupStabilitySig:mean 	0.96154879409199
scalar Network.dyn_peer[303] 	lookupHopsSig:mean 	27.933333333333
scalar Network.dyn_peer[304] 	lookupTimeSig:mean 	2.5461538461538
scalar Network.dyn_peer[304] 	lookupStabilitySig:mean 	0.95335497492208
scalar Network.dyn_peer[304] 	lookupHopsSig:mean 	24.538461538462
scalar Network.dyn_peer[305] 	lookupTimeSig:mean 	2.2
scalar Network.dyn_peer[305] 	lookupStabilitySig:mean 	0.96405951903117
scalar Network.dyn_peer[305] 	lookupHopsSig:mean 	21.090909090909
scalar Network.dyn_peer[306] 	lookupTimeSig:mean 	1.8928571428571
scalar Network.dyn_peer[306] 	lookupStabilitySig:mean 	0.95847898063117
scalar Network.dyn_peer[306] 	lookupHopsSig:mean 	18
scalar Network.dyn_peer[307] 	lookupTimeSig:mean 	2.3217391304348
scalar Network.dyn_peer[307] 	lookupStabilitySig:mean 	0.9720358153218
scalar Network.dyn_peer[307] 	lookupHopsSig:mean 	22.260869565217
scalar Network.dyn_peer[308] 	lookupTimeSig:mean 	1.8461538461538
scalar Network.dyn_peer[308] 	lookupStabilitySig:mean 	0.95232482175701
scalar Network.dyn_peer[308] 	lookupHopsSig:mean 	17.538461538462
scalar Network.dyn_peer[309] 	lookupTimeSig:mean 	2.92
scalar Network.dyn_peer[309] 	lookupStabilitySig:mean 	0.96002869831864
scalar Network.dyn_peer[309] 	lookupHopsSig:mean 	28.3
scalar Network.dyn_peer[310] 	lookupTimeSig:mean 	2.9411764705882
scalar Network.dyn_peer[310] 	lookupStabilitySig:mean 	0.96596905693193
scalar Network.dyn_peer[310] 	lookupHopsSig:mean 	28.470588235294
scalar Network.dyn_peer[311] 	lookupTimeSig:mean 	2.7375
scalar Network.dyn_peer[311] 	lookupStabilitySig:mean 	0.9590572984016
scalar Network.dyn_peer[311] 	lookupHopsSig:mean 	26.4375
scalar Network.dyn_peer[312] 	lookupTimeSig:mean 	2.5538461538462
scalar Network.dyn_peer[312] 	lookupStabilitySig:mean 	0.9599147426063
scalar Network.dyn_peer[312] 	lookupHopsSig:mean 	24.615384615385
scalar Network.dyn_peer[313] 	lookupTimeSig:mean 	2.8083333333333
scalar Network.dyn_peer[313] 	lookupStabilitySig:mean 	0.96362669117904
scalar Network.dyn_peer[313] 	lookupHopsSig:mean 	27.166666666667
scalar Network.dyn_peer[314] 	lookupTimeSig:mean 	2.1333333333333
scalar Network.dyn_peer[314] 	lookupStabilitySig:mean 	0.95217379687044
scalar Network.dyn_peer[314] 	lookupHopsSig:mean 	20.416666666667
scalar Network.dyn_peer[315] 	lookupTimeSig:mean 	1.8714285714286
scalar Network.dyn_peer[315] 	lookupStabilitySig:mean 	0.95862079534813
scalar Network.dyn_peer[315] 	lookupHopsSig:mean 	17.785714285714
scalar Network.dyn_peer[316] 	lookupTimeSig:mean 	2.8625
scalar Network.dyn_peer[316] 	lookupStabilitySig:mean 	0.9532638367964
scalar Network.dyn_peer[316] 	lookupHopsSig:mean 	27.75
scalar Network.dyn_peer[317] 	lookupTimeSig:mean 	2.2058823529412
scalar Network.dyn_peer[317] 	lookupStabilitySig:mean 	0.96489247537958
scalar Network.dyn_peer[317] 	lookupHopsSig:mean 	21.117647058824
scalar Network.dyn_peer[318] 	lookupTimeSig:mean 	3.07
scalar Network.dyn_peer[318] 	lookupStabilitySig:mean 	0.95536965802312
scalar Network.dyn_peer[318] 	lookupHopsSig:mean 	29.8
scalar Network.dyn_peer[319] 	lookupTimeSig:mean 	2.3166666666667
scalar Network.dyn_peer[319] 	lookupStabilitySig:mean 	0.95036311300161
scalar Network.dyn_peer[319] 	lookupHopsSig:mean 	22.25
scalar Network.dyn_peer[320] 	lookupTimeSig:mean 	2.8208333333333
scalar Network.dyn_peer[320] 	lookupStabilitySig:mean 	0.97022720914538
scalar Network.dyn_peer[320] 	lookupHopsSig:mean 	27.25
scalar Network.dyn_peer[321] 	lookupTimeSig:mean 	3.5125
scalar Network.dyn_peer[321] 	lookupStabilitySig:mean 	0.94586021458963
scalar Network.dyn_peer[321] 	lookupHopsSig:mean 	34.25
scalar Network.dyn_peer[322] 	lookupTimeSig:mean 	1.8071428571429
scalar Network.dyn_peer[322] 	lookupStabilitySig:mean 	0.97473007728279
scalar Network.dyn_peer[322] 	lookupHopsSig:mean 	17.107142857143
scalar Network.dyn_peer[323] 	lookupTimeSig:mean 	3.425
scalar Network.dyn_peer[323] 	lookupStabilitySig:mean 	0.93874896829948
scalar Network.dyn_peer[323] 	lookupHopsSig:mean 	33.375
scalar Network.dyn_peer[324] 	lookupTimeSig:mean 	2.7461538461538
scalar Network.dyn_peer[324] 	lookupStabilitySig:mean 	0.96772561684394
scalar Network.dyn_peer[324] 	lookupHopsSig:mean 	26.538461538462
scalar Network.dyn_peer[325] 	lookupTimeSig:mean 	2.45
scalar Network.dyn_peer[325] 	lookupStabilitySig:mean 	0.9641624315409
scalar Network.dyn_peer[325] 	lookupHopsSig:mean 	23.625
scalar Network.dyn_peer[326] 	lookupTimeSig:mean 	3.54
scalar Network.dyn_peer[326] 	lookupStabilitySig:mean 	0.94756497200578
scalar Network.dyn_peer[326] 	lookupHopsSig:mean 	34.5
scalar Network.dyn_peer[327] 	lookupTimeSig:mean 	2.4083333333333
scalar Network.dyn_peer[327] 	lookupStabilitySig:mean 	0.95478763499705
scalar Network.dyn_peer[327] 	lookupHopsSig:mean 	23.166666666667
scalar Network.dyn_peer[328] 	lookupTimeSig:mean 	2.9222222222222
scalar Network.dyn_peer[328] 	lookupStabilitySig:mean 	0.95930625063678
scalar Network.dyn_peer[328] 	lookupHopsSig:mean 	28.333333333333
scalar Network.dyn_peer[329] 	lookupTimeSig:mean 	2.2882352941176
scalar Network.dyn_peer[329] 	lookupStabilitySig:mean 	0.96712699795471
scalar Network.dyn_peer[329] 	lookupHopsSig:mean 	21.941176470588
scalar Network.dyn_peer[330] 	lookupTimeSig:mean 	1.8307692307692
scalar Network.dyn_peer[330] 	lookupStabilitySig:mean 	0.9650048858916
scalar Network.dyn_peer[330] 	lookupHopsSig:mean 	17.384615384615
scalar Network.dyn_peer[331] 	lookupTimeSig:mean 	2.8357142857143
scalar Network.dyn_peer[331] 	lookupStabilitySig:mean 	0.95679192747256
scalar Network.dyn_peer[331] 	lookupHopsSig:mean 	27.428571428571
scalar Network.dyn_peer[332] 	lookupTimeSig:mean 	1.4642857142857
scalar Network.dyn_peer[332] 	lookupStabilitySig:mean 	0.96652579127944
scalar Network.dyn_peer[332] 	lookupHopsSig:mean 	13.714285714286
scalar Network.dyn_peer[333] 	lookupTimeSig:mean 	2.3263157894737
scalar Network.dyn_peer[333] 	lookupStabilitySig:mean 	0.96500720470948
scalar Network.dyn_peer[333] 	lookupHopsSig:mean 	22.315789473684
scalar Network.dyn_peer[334] 	lookupTimeSig:mean 	2.2818181818182
scalar Network.dyn_peer[334] 	lookupStabilitySig:mean 	0.95513487970245
scalar Network.dyn_peer[334] 	lookupHopsSig:mean 	21.909090909091
scalar Network.dyn_peer[335] 	lookupTimeSig:mean 	1.35
scalar Network.dyn_peer[335] 	lookupStabilitySig:mean 	0.97024391707964
scalar Network.dyn_peer[335] 	lookupHopsSig:mean 	12.571428571429
scalar Network.dyn_peer[336] 	lookupTimeSig:mean 	2.95
scalar Network.dyn_peer[336] 	lookupStabilitySig:mean 	0.96103477862198
scalar Network.dyn_peer[336] 	lookupHopsSig:mean 	28.5625
scalar Network.dyn_peer[337] 	lookupTimeSig:mean 	2.6866666666667
scalar Network.dyn_peer[337] 	lookupStabilitySig:mean 	0.9671475415118
scalar Network.dyn_peer[337] 	lookupHopsSig:mean 	25.933333333333
scalar Network.dyn_peer[338] 	lookupTimeSig:mean 	2.5833333333333
scalar Network.dyn_peer[338] 	lookupStabilitySig:mean 	0.96250311994097
scalar Network.dyn_peer[338] 	lookupHopsSig:mean 	24.888888888889
scalar Network.dyn_peer[339] 	lookupTimeSig:mean 	2.875
scalar Network.dyn_peer[339] 	lookupStabilitySig:mean 	0.96320348359101
scalar Network.dyn_peer[339] 	lookupHopsSig:mean 	27.833333333333
scalar Network.dyn_peer[340] 	lookupTimeSig:mean 	2.9214285714286
scalar Network.dyn_peer[340] 	lookupStabilitySig:mean 	0.9614901768343
scalar Network.dyn_peer[340] 	lookupHopsSig:mean 	28.285714285714
scalar Network.dyn_peer[341] 	lookupTimeSig:mean 	3.2272727272727
scalar Network.dyn_peer[341] 	lookupStabilitySig:mean 	0.94667390915989
scalar Network.dyn_peer[341] 	lookupHopsSig:mean 	31.363636363636
scalar Network.dyn_peer[342] 	lookupTimeSig:mean 	2.6928571428571
scalar Network.dyn_peer[342] 	lookupStabilitySig:mean 	0.96521006677566
scalar Network.dyn_peer[342] 	lookupHopsSig:mean 	26
scalar Network.dyn_peer[343] 	lookupTimeSig:mean 	2.05
scalar Network.dyn_peer[343] 	lookupStabilitySig:mean 	0.96779613982653
scalar Network.dyn_peer[343] 	lookupHopsSig:mean 	19.555555555556
scalar Network.dyn_peer[344] 	lookupTimeSig:mean 	2.1583333333333
scalar Network.dyn_peer[344] 	lookupStabilitySig:mean 	0.9669378347074
scalar Network.dyn_peer[344] 	lookupHopsSig:mean 	20.666666666667
scalar Network.dyn_peer[345] 	lookupTimeSig:mean 	2.4285714285714
scalar Network.dyn_peer[345] 	lookupStabilitySig:mean 	0.95637180177229
scalar Network.dyn_peer[345] 	lookupHopsSig:mean 	23.357142857143
scalar Network.dyn_peer[346] 	lookupTimeSig:mean 	3.5214285714286
scalar Network.dyn_peer[346] 	lookupStabilitySig:mean 	0.961969261989
scalar Network.dyn_peer[346] 	lookupHopsSig:mean 	34.285714285714
scalar Network.dyn_peer[347] 	lookupTimeSig:mean 	3.69
scalar Network.dyn_peer[347] 	lookupStabilitySig:mean 	0.94767567585222
scalar Network.dyn_peer[347] 	lookupHopsSig:mean 	36
scalar Network.dyn_peer[348] 	lookupTimeSig:mean 	2.6375
scalar Network.dyn_peer[348] 	lookupStabilitySig:mean 	0.96191170680686
scalar Network.dyn_peer[348] 	lookupHopsSig:mean 	25.4375
scalar Network.dyn_peer[349] 	lookupTimeSig:mean 	1.8833333333333
scalar Network.dyn_peer[349] 	lookupStabilitySig:mean 	0.93855637901773
scalar Network.dyn_peer[349] 	lookupHopsSig:mean 	18
scalar Network.dyn_peer[350] 	lookupTimeSig:mean 	2.9142857142857
scalar Network.dyn_peer[350] 	lookupStabilitySig:mean 	0.96228099115459
scalar Network.dyn_peer[350] 	lookupHopsSig:mean 	28.214285714286
scalar Network.dyn_peer[351] 	lookupTimeSig:mean 	2.9
scalar Network.dyn_peer[351] 	lookupStabilitySig:mean 	0.94960965419887
scalar Network.dyn_peer[351] 	lookupHopsSig:mean 	28.125
scalar Network.dyn_peer[352] 	lookupTimeSig:mean 	2.6666666666667
scalar Network.dyn_peer[352] 	lookupStabilitySig:mean 	0.9672662634713
scalar Network.dyn_peer[352] 	lookupHopsSig:mean 	25.733333333333
scalar Network.dyn_peer[353] 	lookupTimeSig:mean 	2.5533333333333
scalar Network.dyn_peer[353] 	lookupStabilitySig:mean 	0.97062830555563
scalar Network.dyn_peer[353] 	lookupHopsSig:mean 	24.6
scalar Network.dyn_peer[354] 	lookupTimeSig:mean 	3
scalar Network.dyn_peer[354] 	lookupStabilitySig:mean 	0.9751341230744
scalar Network.dyn_peer[354] 	lookupHopsSig:mean 	29.045454545455
scalar Network.dyn_peer[355] 	lookupTimeSig:mean 	2.0647058823529
scalar Network.dyn_peer[355] 	lookupStabilitySig:mean 	0.96842447739533
scalar Network.dyn_peer[355] 	lookupHopsSig:mean 	19.705882352941
scalar Network.dyn_peer[356] 	lookupTimeSig:mean 	2.9076923076923
scalar Network.dyn_peer[356] 	lookupStabilitySig:mean 	0.96256794991831
scalar Network.dyn_peer[356] 	lookupHopsSig:mean 	28.153846153846
scalar Network.dyn_peer[357] 	lookupTimeSig:mean 	2.0777777777778
scalar Network.dyn_peer[357] 	lookupStabilitySig:mean 	0.95511897710255
scalar Network.dyn_peer[357] 	lookupHopsSig:mean 	19.888888888889
scalar Network.dyn_peer[358] 	lookupTimeSig:mean 	3.2416666666667
scalar Network.dyn_peer[358] 	lookupStabilitySig:mean 	0.96527930696417
scalar Network.dyn_peer[358] 	lookupHopsSig:mean 	31.5
scalar Network.dyn_peer[359] 	lookupTimeSig:mean 	2.4357142857143
scalar Network.dyn_peer[359] 	lookupStabilitySig:mean 	0.95854486880957
scalar Network.dyn_peer[359] 	lookupHopsSig:mean 	23.428571428571
scalar Network.dyn_peer[360] 	lookupTimeSig:mean 	2.9
scalar Network.dyn_peer[360] 	lookupStabilitySig:mean 	0.96386599061353
scalar Network.dyn_peer[360] 	lookupHopsSig:mean 	28.058823529412
scalar Network.dyn_peer[361] 	lookupTimeSig:mean 	2.8538461538462
scalar Network.dyn_peer[361] 	lookupStabilitySig:mean 	0.96191920744828
scalar Network.dyn_peer[361] 	lookupHopsSig:mean 	27.615384615385
scalar Network.dyn_peer[362] 	lookupTimeSig:mean 	3.0416666666667
scalar Network.dyn_peer[362] 	lookupStabilitySig:mean 	0.95622418863544
scalar Network.dyn_peer[362] 	lookupHopsSig:mean 	29.5
scalar Network.dyn_peer[363] 	lookupTimeSig:mean 	2.7454545454545
scalar Network.dyn_peer[363] 	lookupStabilitySig:mean 	0.95082139282022
scalar Network.dyn_peer[363] 	lookupHopsSig:mean 	26.545454545455
scalar Network.dyn_peer[364] 	lookupTimeSig:mean 	2.3
scalar Network.dyn_peer[364] 	lookupStabilitySig:mean 	0.95656634430186
scalar Network.dyn_peer[364] 	lookupHopsSig:mean 	22.076923076923
scalar Network.dyn_peer[365] 	lookupTimeSig:mean 	2.5333333333333
scalar Network.dyn_peer[365] 	lookupStabilitySig:mean 	0.92439126347502
scalar Network.dyn_peer[365] 	lookupHopsSig:mean 	24.5
scalar Network.dyn_peer[366] 	lookupTimeSig:mean 	2.85
scalar Network.dyn_peer[366] 	lookupStabilitySig:mean 	0.96720961174772
scalar Network.dyn_peer[366] 	lookupHopsSig:mean 	27.583333333333
scalar Network.dyn_peer[367] 	lookupTimeSig:mean 	3.8363636363636
scalar Network.dyn_peer[367] 	lookupStabilitySig:mean 	0.94807760205797
scalar Network.dyn_peer[367] 	lookupHopsSig:mean 	37.454545454545
scalar Network.dyn_peer[368] 	lookupTimeSig:mean 	2.2
scalar Network.dyn_peer[368] 	lookupStabilitySig:mean 	0.96521404702216
scalar Network.dyn_peer[368] 	lookupHopsSig:mean 	21.066666666667
scalar Network.dyn_peer[369] 	lookupTimeSig:mean 	2.9214285714286
scalar Network.dyn_peer[369] 	lookupStabilitySig:mean 	0.95990587704416
scalar Network.dyn_peer[369] 	lookupHopsSig:mean 	28.285714285714
scalar Network.dyn_peer[370] 	lookupTimeSig:mean 	2.4
scalar Network.dyn_peer[370] 	lookupStabilitySig:mean 	0.95643037321189
scalar Network.dyn_peer[370] 	lookupHopsSig:mean 	23.076923076923
scalar Network.dyn_peer[371] 	lookupTimeSig:mean 	3.7764705882353
scalar Network.dyn_peer[371] 	lookupStabilitySig:mean 	0.96243793644723
scalar Network.dyn_peer[371] 	lookupHopsSig:mean 	36.823529411765
scalar Network.dyn_peer[372] 	lookupTimeSig:mean 	2.375
scalar Network.dyn_peer[372] 	lookupStabilitySig:mean 	0.9594772120472
scalar Network.dyn_peer[372] 	lookupHopsSig:mean 	22.833333333333
scalar Network.dyn_peer[373] 	lookupTimeSig:mean 	3.5571428571429
scalar Network.dyn_peer[373] 	lookupStabilitySig:mean 	0.97012647876649
scalar Network.dyn_peer[373] 	lookupHopsSig:mean 	34.642857142857
scalar Network.dyn_peer[374] 	lookupTimeSig:mean 	2.6833333333333
scalar Network.dyn_peer[374] 	lookupStabilitySig:mean 	0.96043435266862
scalar Network.dyn_peer[374] 	lookupHopsSig:mean 	26
scalar Network.dyn_peer[375] 	lookupTimeSig:mean 	1.9
scalar Network.dyn_peer[375] 	lookupStabilitySig:mean 	0.96594225770483
scalar Network.dyn_peer[375] 	lookupHopsSig:mean 	18.111111111111
scalar Network.dyn_peer[376] 	lookupTimeSig:mean 	3.21
scalar Network.dyn_peer[376] 	lookupStabilitySig:mean 	0.95602869684808
scalar Network.dyn_peer[376] 	lookupHopsSig:mean 	31.2
scalar Network.dyn_peer[377] 	lookupTimeSig:mean 	2.3833333333333
scalar Network.dyn_peer[377] 	lookupStabilitySig:mean 	0.97509349156947
scalar Network.dyn_peer[377] 	lookupHopsSig:mean 	22.875
scalar Network.dyn_peer[378] 	lookupTimeSig:mean 	3.06875
scalar Network.dyn_peer[378] 	lookupStabilitySig:mean 	0.96260757814161
scalar Network.dyn_peer[378] 	lookupHopsSig:mean 	29.75
scalar Network.dyn_peer[379] 	lookupTimeSig:mean 	2.6666666666667
scalar Network.dyn_peer[379] 	lookupStabilitySig:mean 	0.94438034409864
scalar Network.dyn_peer[379] 	lookupHopsSig:mean 	25.777777777778
scalar Network.dyn_peer[380] 	lookupTimeSig:mean 	2.9916666666667
scalar Network.dyn_peer[380] 	lookupStabilitySig:mean 	0.96082117420156
scalar Network.dyn_peer[380] 	lookupHopsSig:mean 	29
scalar Network.dyn_peer[381] 	lookupTimeSig:mean 	3.0461538461538
scalar Network.dyn_peer[381] 	lookupStabilitySig:mean 	0.96239381673961
scalar Network.dyn_peer[381] 	lookupHopsSig:mean 	29.538461538462
scalar Network.dyn_peer[382] 	lookupTimeSig:mean 	2.7733333333333
scalar Network.dyn_peer[382] 	lookupStabilitySig:mean 	0.96132960294684
scalar Network.dyn_peer[382] 	lookupHopsSig:mean 	26.8
scalar Network.dyn_peer[383] 	lookupTimeSig:mean 	2.5666666666667
scalar Network.dyn_peer[383] 	lookupStabilitySig:mean 	0.94512538653281
scalar Network.dyn_peer[383] 	lookupHopsSig:mean 	24.777777777778
scalar Network.dyn_peer[384] 	lookupTimeSig:mean 	2.49
scalar Network.dyn_peer[384] 	lookupStabilitySig:mean 	0.97282338901132
scalar Network.dyn_peer[384] 	lookupHopsSig:mean 	23.95
scalar Network.dyn_peer[385] 	lookupTimeSig:mean 	0.63333333333333
scalar Network.dyn_peer[385] 	lookupStabilitySig:mean 	0.94877578473339
scalar Network.dyn_peer[385] 	lookupHopsSig:mean 	5.6666666666667
scalar Network.dyn_peer[386] 	lookupTimeSig:mean 	2.5521739130435
scalar Network.dyn_peer[386] 	lookupStabilitySig:mean 	0.97252632490784
scalar Network.dyn_peer[386] 	lookupHopsSig:mean 	24.565217391304
scalar Network.dyn_peer[387] 	lookupTimeSig:mean 	2.4615384615385
scalar Network.dyn_peer[387] 	lookupStabilitySig:mean 	0.96716733896532
scalar Network.dyn_peer[387] 	lookupHopsSig:mean 	23.692307692308
scalar Network.dyn_peer[388] 	lookupTimeSig:mean 	2.4769230769231
scalar Network.dyn_peer[388] 	lookupStabilitySig:mean 	0.95690546535815
scalar Network.dyn_peer[388] 	lookupHopsSig:mean 	23.846153846154
scalar Network.dyn_peer[389] 	lookupTimeSig:mean 	3.2153846153846
scalar Network.dyn_peer[389] 	lookupStabilitySig:mean 	0.97725401245631
scalar Network.dyn_peer[389] 	lookupHopsSig:mean 	31.192307692308
scalar Network.dyn_peer[390] 	lookupTimeSig:mean 	2.9785714285714
scalar Network.dyn_peer[390] 	lookupStabilitySig:mean 	0.96232466276602
scalar Network.dyn_peer[390] 	lookupHopsSig:mean 	28.857142857143
scalar Network.dyn_peer[391] 	lookupTimeSig:mean 	2.62
scalar Network.dyn_peer[391] 	lookupStabilitySig:mean 	0.91879635974765
scalar Network.dyn_peer[391] 	lookupHopsSig:mean 	25.4
scalar Network.dyn_peer[392] 	lookupTimeSig:mean 	2.4933333333333
scalar Network.dyn_peer[392] 	lookupStabilitySig:mean 	0.96135904292266
scalar Network.dyn_peer[392] 	lookupHopsSig:mean 	24
scalar Network.dyn_peer[393] 	lookupTimeSig:mean 	2.5466666666667
scalar Network.dyn_peer[393] 	lookupStabilitySig:mean 	0.96548933222269
scalar Network.dyn_peer[393] 	lookupHopsSig:mean 	24.533333333333
scalar Network.dyn_peer[394] 	lookupTimeSig:mean 	1.8571428571429
scalar Network.dyn_peer[394] 	lookupStabilitySig:mean 	0.94521628346826
scalar Network.dyn_peer[394] 	lookupHopsSig:mean 	17.714285714286
scalar Network.dyn_peer[395] 	lookupTimeSig:mean 	2.825
scalar Network.dyn_peer[395] 	lookupStabilitySig:mean 	0.9608826963813
scalar Network.dyn_peer[395] 	lookupHopsSig:mean 	27.375
scalar Network.dyn_peer[396] 	lookupTimeSig:mean 	2.475
scalar Network.dyn_peer[396] 	lookupStabilitySig:mean 	0.95898495242
scalar Network.dyn_peer[396] 	lookupHopsSig:mean 	23.875
scalar Network.dyn_peer[397] 	lookupTimeSig:mean 	1.7428571428571
scalar Network.dyn_peer[397] 	lookupStabilitySig:mean 	0.96330444411641
scalar Network.dyn_peer[397] 	lookupHopsSig:mean 	16.5
scalar Network.dyn_peer[398] 	lookupTimeSig:mean 	1.8416666666667
scalar Network.dyn_peer[398] 	lookupStabilitySig:mean 	0.96696814106933
scalar Network.dyn_peer[398] 	lookupHopsSig:mean 	17.5
scalar Network.dyn_peer[399] 	lookupTimeSig:mean 	2.8933333333333
scalar Network.dyn_peer[399] 	lookupStabilitySig:mean 	0.96111853898813
scalar Network.dyn_peer[399] 	lookupHopsSig:mean 	28
scalar Network.dyn_peer[400] 	lookupTimeSig:mean 	2.8666666666667
scalar Network.dyn_peer[400] 	lookupStabilitySig:mean 	0.96574280108325
scalar Network.dyn_peer[400] 	lookupHopsSig:mean 	27.733333333333
scalar Network.dyn_peer[401] 	lookupTimeSig:mean 	3.4888888888889
scalar Network.dyn_peer[401] 	lookupStabilitySig:mean 	0.95849517158543
scalar Network.dyn_peer[401] 	lookupHopsSig:mean 	34
scalar Network.dyn_peer[402] 	lookupTimeSig:mean 	2.175
scalar Network.dyn_peer[402] 	lookupStabilitySig:mean 	0.96880242155748
scalar Network.dyn_peer[402] 	lookupHopsSig:mean 	20.8125
scalar Network.dyn_peer[403] 	lookupTimeSig:mean 	2.4916666666667
scalar Network.dyn_peer[403] 	lookupStabilitySig:mean 	0.96028636807265
scalar Network.dyn_peer[403] 	lookupHopsSig:mean 	24
scalar Network.dyn_peer[404] 	lookupTimeSig:mean 	2.18
scalar Network.dyn_peer[404] 	lookupStabilitySig:mean 	0.95976914064959
scalar Network.dyn_peer[404] 	lookupHopsSig:mean 	20.9
scalar Network.dyn_peer[405] 	lookupTimeSig:mean 	1.425
scalar Network.dyn_peer[405] 	lookupStabilitySig:mean 	0.96609979774803
scalar Network.dyn_peer[405] 	lookupHopsSig:mean 	13.375
scalar Network.dyn_peer[406] 	lookupTimeSig:mean 	3.1235294117647
scalar Network.dyn_peer[406] 	lookupStabilitySig:mean 	0.9705210765002
scalar Network.dyn_peer[406] 	lookupHopsSig:mean 	30.294117647059
[...]
scalar Network.dyn_peer[9885] 	lookupTimeSig:mean 	-nan
scalar Network.dyn_peer[9885] 	lookupStabilitySig:mean 	-nan
scalar Network.dyn_peer[9885] 	lookupHopsSig:mean 	-nan
scalar Network.dyn_peer[9886] 	lookupTimeSig:mean 	-nan
scalar Network.dyn_peer[9886] 	lookupStabilitySig:mean 	-nan
scalar Network.dyn_peer[9886] 	lookupHopsSig:mean 	-nan
scalar Network.dyn_peer[9887] 	lookupTimeSig:mean 	-nan
scalar Network.dyn_peer[9887] 	lookupStabilitySig:mean 	-nan
scalar Network.dyn_peer[9887] 	lookupHopsSig:mean 	-nan
scalar Network.dyn_peer[9888] 	lookupTimeSig:mean 	-nan
scalar Network.dyn_peer[9888] 	lookupStabilitySig:mean 	-nan
scalar Network.dyn_peer[9888] 	lookupHopsSig:mean 	-nan
scalar Network.dyn_peer[9889] 	lookupTimeSig:mean 	-nan
scalar Network.dyn_peer[9889] 	lookupStabilitySig:mean 	-nan
scalar Network.dyn_peer[9889] 	lookupHopsSig:mean 	-nan
scalar Network.dyn_peer[9890] 	lookupTimeSig:mean 	-nan
scalar Network.dyn_peer[9890] 	lookupStabilitySig:mean 	-nan
scalar Network.dyn_peer[9890] 	lookupHopsSig:mean 	-nan
scalar Network.dyn_peer[9891] 	lookupTimeSig:mean 	-nan
scalar Network.dyn_peer[9891] 	lookupStabilitySig:mean 	-nan
scalar Network.dyn_peer[9891] 	lookupHopsSig:mean 	-nan
scalar Network.dyn_peer[9892] 	lookupTimeSig:mean 	-nan
scalar Network.dyn_peer[9892] 	lookupStabilitySig:mean 	-nan
scalar Network.dyn_peer[9892] 	lookupHopsSig:mean 	-nan
scalar Network.dyn_peer[9893] 	lookupTimeSig:mean 	-nan
scalar Network.dyn_peer[9893] 	lookupStabilitySig:mean 	-nan
scalar Network.dyn_peer[9893] 	lookupHopsSig:mean 	-nan
scalar Network.dyn_peer[9894] 	lookupTimeSig:mean 	-nan
scalar Network.dyn_peer[9894] 	lookupStabilitySig:mean 	-nan
scalar Network.dyn_peer[9894] 	lookupHopsSig:mean 	-nan
scalar Network.dyn_peer[9895] 	lookupTimeSig:mean 	-nan
scalar Network.dyn_peer[9895] 	lookupStabilitySig:mean 	-nan
scalar Network.dyn_peer[9895] 	lookupHopsSig:mean 	-nan
scalar Network.dyn_peer[9896] 	lookupTimeSig:mean 	-nan
scalar Network.dyn_peer[9896] 	lookupStabilitySig:mean 	-nan
scalar Network.dyn_peer[9896] 	lookupHopsSig:mean 	-nan
scalar Network.dyn_peer[9897] 	lookupTimeSig:mean 	-nan
scalar Network.dyn_peer[9897] 	lookupStabilitySig:mean 	-nan
scalar Network.dyn_peer[9897] 	lookupHopsSig:mean 	-nan
scalar Network.dyn_peer[9898] 	lookupTimeSig:mean 	-nan
scalar Network.dyn_peer[9898] 	lookupStabilitySig:mean 	-nan
scalar Network.dyn_peer[9898] 	lookupHopsSig:mean 	-nan
scalar Network.dyn_peer[9899] 	lookupTimeSig:mean 	-nan
scalar Network.dyn_peer[9899] 	lookupStabilitySig:mean 	-nan
scalar Network.dyn_peer[9899] 	lookupHopsSig:mean 	-nan
scalar Network.dyn_peer[9900] 	lookupTimeSig:mean 	-nan
scalar Network.dyn_peer[9900] 	lookupStabilitySig:mean 	-nan
scalar Network.dyn_peer[9900] 	lookupHopsSig:mean 	-nan
scalar Network.dyn_peer[9901] 	lookupTimeSig:mean 	-nan
scalar Network.dyn_peer[9901] 	lookupStabilitySig:mean 	-nan
scalar Network.dyn_peer[9901] 	lookupHopsSig:mean 	-nan
scalar Network.dyn_peer[9902] 	lookupTimeSig:mean 	-nan
scalar Network.dyn_peer[9902] 	lookupStabilitySig:mean 	-nan
scalar Network.dyn_peer[9902] 	lookupHopsSig:mean 	-nan
scalar Network.dyn_peer[9903] 	lookupTimeSig:mean 	-nan
scalar Network.dyn_peer[9903] 	lookupStabilitySig:mean 	-nan
scalar Network.dyn_peer[9903] 	lookupHopsSig:mean 	-nan
scalar Network.dyn_peer[9904] 	lookupTimeSig:mean 	-nan
scalar Network.dyn_peer[9904] 	lookupStabilitySig:mean 	-nan
scalar Network.dyn_peer[9904] 	lookupHopsSig:mean 	-nan
scalar Network.dyn_peer[9905] 	lookupTimeSig:mean 	-nan
scalar Network.dyn_peer[9905] 	lookupStabilitySig:mean 	-nan
scalar Network.dyn_peer[9905] 	lookupHopsSig:mean 	-nan
scalar Network.dyn_peer[9906] 	lookupTimeSig:mean 	-nan
scalar Network.dyn_peer[9906] 	lookupStabilitySig:mean 	-nan
scalar Network.dyn_peer[9906] 	lookupHopsSig:mean 	-nan
scalar Network.dyn_peer[9907] 	lookupTimeSig:mean 	-nan
scalar Network.dyn_peer[9907] 	lookupStabilitySig:mean 	-nan
scalar Network.dyn_peer[9907] 	lookupHopsSig:mean 	-nan
scalar Network.dyn_peer[9908] 	lookupTimeSig:mean 	-nan
scalar Network.dyn_peer[9908] 	lookupStabilitySig:mean 	-nan
scalar Network.dyn_peer[9908] 	lookupHopsSig:mean 	-nan
scalar Network.dyn_peer[9909] 	lookupTimeSig:mean 	-nan
scalar Network.dyn_peer[9909] 	lookupStabilitySig:mean 	-nan
scalar Network.dyn_peer[9909] 	lookupHopsSig:mean 	-nan
scalar Network.dyn_peer[9910] 	lookupTimeSig:mean 	-nan
scalar Network.dyn_peer[9910] 	lookupStabilitySig:mean 	-nan
scalar Network.dyn_peer[9910] 	lookupHopsSig:mean 	-nan
scalar Network.dyn_peer[9911] 	lookupTimeSig:mean 	-nan
scalar Network.dyn_peer[9911] 	lookupStabilitySig:mean 	-nan
scalar Network.dyn_peer[9911] 	lookupHopsSig:mean 	-nan
scalar Network.dyn_peer[9912] 	lookupTimeSig:mean 	-nan
scalar Network.dyn_peer[9912] 	lookupStabilitySig:mean 	-nan
scalar Network.dyn_peer[9912] 	lookupHopsSig:mean 	-nan
scalar Network.dyn_peer[9913] 	lookupTimeSig:mean 	-nan
scalar Network.dyn_peer[9913] 	lookupStabilitySig:mean 	-nan
scalar Network.dyn_peer[9913] 	lookupHopsSig:mean 	-nan
scalar Network.dyn_peer[9914] 	lookupTimeSig:mean 	-nan
scalar Network.dyn_peer[9914] 	lookupStabilitySig:mean 	-nan
scalar Network.dyn_peer[9914] 	lookupHopsSig:mean 	-nan
scalar Network.dyn_peer[9915] 	lookupTimeSig:mean 	-nan
scalar Network.dyn_peer[9915] 	lookupStabilitySig:mean 	-nan
scalar Network.dyn_peer[9915] 	lookupHopsSig:mean 	-nan
scalar Network.dyn_peer[9916] 	lookupTimeSig:mean 	-nan
scalar Network.dyn_peer[9916] 	lookupStabilitySig:mean 	-nan
scalar Network.dyn_peer[9916] 	lookupHopsSig:mean 	-nan
scalar Network.dyn_peer[9917] 	lookupTimeSig:mean 	-nan
scalar Network.dyn_peer[9917] 	lookupStabilitySig:mean 	-nan
scalar Network.dyn_peer[9917] 	lookupHopsSig:mean 	-nan
scalar Network.dyn_peer[9918] 	lookupTimeSig:mean 	-nan
scalar Network.dyn_peer[9918] 	lookupStabilitySig:mean 	-nan
scalar Network.dyn_peer[9918] 	lookupHopsSig:mean 	-nan
scalar Network.dyn_peer[9919] 	lookupTimeSig:mean 	-nan
scalar Network.dyn_peer[9919] 	lookupStabilitySig:mean 	-nan
scalar Network.dyn_peer[9919] 	lookupHopsSig:mean 	-nan
scalar Network.dyn_peer[9920] 	lookupTimeSig:mean 	-nan
scalar Network.dyn_peer[9920] 	lookupStabilitySig:mean 	-nan
scalar Network.dyn_peer[9920] 	lookupHopsSig:mean 	-nan
scalar Network.dyn_peer[9921] 	lookupTimeSig:mean 	-nan
scalar Network.dyn_peer[9921] 	lookupStabilitySig:mean 	-nan
scalar Network.dyn_peer[9921] 	lookupHopsSig:mean 	-nan
scalar Network.dyn_peer[9922] 	lookupTimeSig:mean 	-nan
scalar Network.dyn_peer[9922] 	lookupStabilitySig:mean 	-nan
scalar Network.dyn_peer[9922] 	lookupHopsSig:mean 	-nan
scalar Network.dyn_peer[9923] 	lookupTimeSig:mean 	-nan
scalar Network.dyn_peer[9923] 	lookupStabilitySig:mean 	-nan
scalar Network.dyn_peer[9923] 	lookupHopsSig:mean 	-nan
scalar Network.dyn_peer[9924] 	lookupTimeSig:mean 	-nan
scalar Network.dyn_peer[9924] 	lookupStabilitySig:mean 	-nan
scalar Network.dyn_peer[9924] 	lookupHopsSig:mean 	-nan
scalar Network.dyn_peer[9925] 	lookupTimeSig:mean 	-nan
scalar Network.dyn_peer[9925] 	lookupStabilitySig:mean 	-nan
scalar Network.dyn_peer[9925] 	lookupHopsSig:mean 	-nan
scalar Network.dyn_peer[9926] 	lookupTimeSig:mean 	-nan
scalar Network.dyn_peer[9926] 	lookupStabilitySig:mean 	-nan
scalar Network.dyn_peer[9926] 	lookupHopsSig:mean 	-nan
scalar Network.dyn_peer[9927] 	lookupTimeSig:mean 	-nan
scalar Network.dyn_peer[9927] 	lookupStabilitySig:mean 	-nan
scalar Network.dyn_peer[9927] 	lookupHopsSig:mean 	-nan
scalar Network.dyn_peer[9928] 	lookupTimeSig:mean 	-nan
scalar Network.dyn_peer[9928] 	lookupStabilitySig:mean 	-nan
scalar Network.dyn_peer[9928] 	lookupHopsSig:mean 	-nan
scalar Network.dyn_peer[9929] 	lookupTimeSig:mean 	-nan
scalar Network.dyn_peer[9929] 	lookupStabilitySig:mean 	-nan
scalar Network.dyn_peer[9929] 	lookupHopsSig:mean 	-nan
scalar Network.dyn_peer[9930] 	lookupTimeSig:mean 	-nan
scalar Network.dyn_peer[9930] 	lookupStabilitySig:mean 	-nan
scalar Network.dyn_peer[9930] 	lookupHopsSig:mean 	-nan
scalar Network.dyn_peer[9931] 	lookupTimeSig:mean 	-nan
scalar Network.dyn_peer[9931] 	lookupStabilitySig:mean 	-nan
scalar Network.dyn_peer[9931] 	lookupHopsSig:mean 	-nan
scalar Network.dyn_peer[9932] 	lookupTimeSig:mean 	-nan
scalar Network.dyn_peer[9932] 	lookupStabilitySig:mean 	-nan
scalar Network.dyn_peer[9932] 	lookupHopsSig:mean 	-nan
scalar Network.dyn_peer[9933] 	lookupTimeSig:mean 	-nan
scalar Network.dyn_peer[9933] 	lookupStabilitySig:mean 	-nan
scalar Network.dyn_peer[9933] 	lookupHopsSig:mean 	-nan
scalar Network.dyn_peer[9934] 	lookupTimeSig:mean 	-nan
scalar Network.dyn_peer[9934] 	lookupStabilitySig:mean 	-nan
scalar Network.dyn_peer[9934] 	lookupHopsSig:mean 	-nan
scalar Network.dyn_peer[9935] 	lookupTimeSig:mean 	-nan
scalar Network.dyn_peer[9935] 	lookupStabilitySig:mean 	-nan
scalar Network.dyn_peer[9935] 	lookupHopsSig:mean 	-nan
scalar Network.dyn_peer[9936] 	lookupTimeSig:mean 	-nan
scalar Network.dyn_peer[9936] 	lookupStabilitySig:mean 	-nan
scalar Network.dyn_peer[9936] 	lookupHopsSig:mean 	-nan
scalar Network.dyn_peer[9937] 	lookupTimeSig:mean 	-nan
scalar Network.dyn_peer[9937] 	lookupStabilitySig:mean 	-nan
scalar Network.dyn_peer[9937] 	lookupHopsSig:mean 	-nan
scalar Network.dyn_peer[9938] 	lookupTimeSig:mean 	-nan
scalar Network.dyn_peer[9938] 	lookupStabilitySig:mean 	-nan
scalar Network.dyn_peer[9938] 	lookupHopsSig:mean 	-nan
scalar Network.dyn_peer[9939] 	lookupTimeSig:mean 	-nan
scalar Network.dyn_peer[9939] 	lookupStabilitySig:mean 	-nan
scalar Network.dyn_peer[9939] 	lookupHopsSig:mean 	-nan
scalar Network.dyn_peer[9940] 	lookupTimeSig:mean 	-nan
scalar Network.dyn_peer[9940] 	lookupStabilitySig:mean 	-nan
scalar Network.dyn_peer[9940] 	lookupHopsSig:mean 	-nan
scalar Network.dyn_peer[9941] 	lookupTimeSig:mean 	-nan
scalar Network.dyn_peer[9941] 	lookupStabilitySig:mean 	-nan
scalar Network.dyn_peer[9941] 	lookupHopsSig:mean 	-nan
scalar Network.dyn_peer[9942] 	lookupTimeSig:mean 	-nan
scalar Network.dyn_peer[9942] 	lookupStabilitySig:mean 	-nan
scalar Network.dyn_peer[9942] 	lookupHopsSig:mean 	-nan
scalar Network.dyn_peer[9943] 	lookupTimeSig:mean 	-nan
scalar Network.dyn_peer[9943] 	lookupStabilitySig:mean 	-nan
scalar Network.dyn_peer[9943] 	lookupHopsSig:mean 	-nan
scalar Network.dyn_peer[9944] 	lookupTimeSig:mean 	-nan
scalar Network.dyn_peer[9944] 	lookupStabilitySig:mean 	-nan
scalar Network.dyn_peer[9944] 	lookupHopsSig:mean 	-nan
scalar Network.dyn_peer[9945] 	lookupTimeSig:mean 	-nan
scalar Network.dyn_peer[9945] 	lookupStabilitySig:mean 	-nan
scalar Network.dyn_peer[9945] 	lookupHopsSig:mean 	-nan
scalar Network.dyn_peer[9946] 	lookupTimeSig:mean 	-nan
scalar Network.dyn_peer[9946] 	lookupStabilitySig:mean 	-nan
scalar Network.dyn_peer[9946] 	lookupHopsSig:mean 	-nan
scalar Network.dyn_peer[9947] 	lookupTimeSig:mean 	-nan
scalar Network.dyn_peer[9947] 	lookupStabilitySig:mean 	-nan
scalar Network.dyn_peer[9947] 	lookupHopsSig:mean 	-nan
scalar Network.dyn_peer[9948] 	lookupTimeSig:mean 	-nan
scalar Network.dyn_peer[9948] 	lookupStabilitySig:mean 	-nan
scalar Network.dyn_peer[9948] 	lookupHopsSig:mean 	-nan
scalar Network.dyn_peer[9949] 	lookupTimeSig:mean 	-nan
scalar Network.dyn_peer[9949] 	lookupStabilitySig:mean 	-nan
scalar Network.dyn_peer[9949] 	lookupHopsSig:mean 	-nan
scalar Network.dyn_peer[9950] 	lookupTimeSig:mean 	-nan
scalar Network.dyn_peer[9950] 	lookupStabilitySig:mean 	-nan
scalar Network.dyn_peer[9950] 	lookupHopsSig:mean 	-nan
scalar Network.dyn_peer[9951] 	lookupTimeSig:mean 	-nan
scalar Network.dyn_peer[9951] 	lookupStabilitySig:mean 	-nan
scalar Network.dyn_peer[9951] 	lookupHopsSig:mean 	-nan
scalar Network.dyn_peer[9952] 	lookupTimeSig:mean 	-nan
scalar Network.dyn_peer[9952] 	lookupStabilitySig:mean 	-nan
scalar Network.dyn_peer[9952] 	lookupHopsSig:mean 	-nan
scalar Network.dyn_peer[9953] 	lookupTimeSig:mean 	-nan
scalar Network.dyn_peer[9953] 	lookupStabilitySig:mean 	-nan
scalar Network.dyn_peer[9953] 	lookupHopsSig:mean 	-nan
scalar Network.dyn_peer[9954] 	lookupTimeSig:mean 	-nan
scalar Network.dyn_peer[9954] 	lookupStabilitySig:mean 	-nan
scalar Network.dyn_peer[9954] 	lookupHopsSig:mean 	-nan
scalar Network.dyn_peer[9955] 	lookupTimeSig:mean 	-nan
scalar Network.dyn_peer[9955] 	lookupStabilitySig:mean 	-nan
scalar Network.dyn_peer[9955] 	lookupHopsSig:mean 	-nan
scalar Network.dyn_peer[9956] 	lookupTimeSig:mean 	-nan
scalar Network.dyn_peer[9956] 	lookupStabilitySig:mean 	-nan
scalar Network.dyn_peer[9956] 	lookupHopsSig:mean 	-nan
scalar Network.dyn_peer[9957] 	lookupTimeSig:mean 	-nan
scalar Network.dyn_peer[9957] 	lookupStabilitySig:mean 	-nan
scalar Network.dyn_peer[9957] 	lookupHopsSig:mean 	-nan
scalar Network.dyn_peer[9958] 	lookupTimeSig:mean 	-nan
scalar Network.dyn_peer[9958] 	lookupStabilitySig:mean 	-nan
scalar Network.dyn_peer[9958] 	lookupHopsSig:mean 	-nan
scalar Network.dyn_peer[9959] 	lookupTimeSig:mean 	-nan
scalar Network.dyn_peer[9959] 	lookupStabilitySig:mean 	-nan
scalar Network.dyn_peer[9959] 	lookupHopsSig:mean 	-nan
scalar Network.dyn_peer[9960] 	lookupTimeSig:mean 	-nan
scalar Network.dyn_peer[9960] 	lookupStabilitySig:mean 	-nan
scalar Network.dyn_peer[9960] 	lookupHopsSig:mean 	-nan
scalar Network.dyn_peer[9961] 	lookupTimeSig:mean 	-nan
scalar Network.dyn_peer[9961] 	lookupStabilitySig:mean 	-nan
scalar Network.dyn_peer[9961] 	lookupHopsSig:mean 	-nan
scalar Network.dyn_peer[9962] 	lookupTimeSig:mean 	-nan
scalar Network.dyn_peer[9962] 	lookupStabilitySig:mean 	-nan
scalar Network.dyn_peer[9962] 	lookupHopsSig:mean 	-nan
scalar Network.dyn_peer[9963] 	lookupTimeSig:mean 	-nan
scalar Network.dyn_peer[9963] 	lookupStabilitySig:mean 	-nan
scalar Network.dyn_peer[9963] 	lookupHopsSig:mean 	-nan
scalar Network.dyn_peer[9964] 	lookupTimeSig:mean 	-nan
scalar Network.dyn_peer[9964] 	lookupStabilitySig:mean 	-nan
scalar Network.dyn_peer[9964] 	lookupHopsSig:mean 	-nan
scalar Network.dyn_peer[9965] 	lookupTimeSig:mean 	-nan
scalar Network.dyn_peer[9965] 	lookupStabilitySig:mean 	-nan
scalar Network.dyn_peer[9965] 	lookupHopsSig:mean 	-nan
scalar Network.dyn_peer[9966] 	lookupTimeSig:mean 	-nan
scalar Network.dyn_peer[9966] 	lookupStabilitySig:mean 	-nan
scalar Network.dyn_peer[9966] 	lookupHopsSig:mean 	-nan
scalar Network.dyn_peer[9967] 	lookupTimeSig:mean 	-nan
scalar Network.dyn_peer[9967] 	lookupStabilitySig:mean 	-nan
scalar Network.dyn_peer[9967] 	lookupHopsSig:mean 	-nan
scalar Network.dyn_peer[9968] 	lookupTimeSig:mean 	-nan
scalar Network.dyn_peer[9968] 	lookupStabilitySig:mean 	-nan
scalar Network.dyn_peer[9968] 	lookupHopsSig:mean 	-nan
scalar Network.dyn_peer[9969] 	lookupTimeSig:mean 	-nan
scalar Network.dyn_peer[9969] 	lookupStabilitySig:mean 	-nan
scalar Network.dyn_peer[9969] 	lookupHopsSig:mean 	-nan
scalar Network.dyn_peer[9970] 	lookupTimeSig:mean 	-nan
scalar Network.dyn_peer[9970] 	lookupStabilitySig:mean 	-nan
scalar Network.dyn_peer[9970] 	lookupHopsSig:mean 	-nan
scalar Network.dyn_peer[9971] 	lookupTimeSig:mean 	-nan
scalar Network.dyn_peer[9971] 	lookupStabilitySig:mean 	-nan
scalar Network.dyn_peer[9971] 	lookupHopsSig:mean 	-nan
scalar Network.dyn_peer[9972] 	lookupTimeSig:mean 	-nan
scalar Network.dyn_peer[9972] 	lookupStabilitySig:mean 	-nan
scalar Network.dyn_peer[9972] 	lookupHopsSig:mean 	-nan
scalar Network.dyn_peer[9973] 	lookupTimeSig:mean 	-nan
scalar Network.dyn_peer[9973] 	lookupStabilitySig:mean 	-nan
scalar Network.dyn_peer[9973] 	lookupHopsSig:mean 	-nan
scalar Network.dyn_peer[9974] 	lookupTimeSig:mean 	-nan
scalar Network.dyn_peer[9974] 	lookupStabilitySig:mean 	-nan
scalar Network.dyn_peer[9974] 	lookupHopsSig:mean 	-nan
scalar Network.dyn_peer[9975] 	lookupTimeSig:mean 	-nan
scalar Network.dyn_peer[9975] 	lookupStabilitySig:mean 	-nan
scalar Network.dyn_peer[9975] 	lookupHopsSig:mean 	-nan
scalar Network.dyn_peer[9976] 	lookupTimeSig:mean 	-nan
scalar Network.dyn_peer[9976] 	lookupStabilitySig:mean 	-nan
scalar Network.dyn_peer[9976] 	lookupHopsSig:mean 	-nan
scalar Network.dyn_peer[9977] 	lookupTimeSig:mean 	-nan
scalar Network.dyn_peer[9977] 	lookupStabilitySig:mean 	-nan
scalar Network.dyn_peer[9977] 	lookupHopsSig:mean 	-nan
scalar Network.dyn_peer[9978] 	lookupTimeSig:mean 	-nan
scalar Network.dyn_peer[9978] 	lookupStabilitySig:mean 	-nan
scalar Network.dyn_peer[9978] 	lookupHopsSig:mean 	-nan
scalar Network.dyn_peer[9979] 	lookupTimeSig:mean 	-nan
scalar Network.dyn_peer[9979] 	lookupStabilitySig:mean 	-nan
scalar Network.dyn_peer[9979] 	lookupHopsSig:mean 	-nan
scalar Network.dyn_peer[9980] 	lookupTimeSig:mean 	-nan
scalar Network.dyn_peer[9980] 	lookupStabilitySig:mean 	-nan
scalar Network.dyn_peer[9980] 	lookupHopsSig:mean 	-nan
scalar Network.dyn_peer[9981] 	lookupTimeSig:mean 	-nan
scalar Network.dyn_peer[9981] 	lookupStabilitySig:mean 	-nan
scalar Network.dyn_peer[9981] 	lookupHopsSig:mean 	-nan
scalar Network.dyn_peer[9982] 	lookupTimeSig:mean 	-nan
scalar Network.dyn_peer[9982] 	lookupStabilitySig:mean 	-nan
scalar Network.dyn_peer[9982] 	lookupHopsSig:mean 	-nan
scalar Network.dyn_peer[9983] 	lookupTimeSig:mean 	-nan
scalar Network.dyn_peer[9983] 	lookupStabilitySig:mean 	-nan
scalar Network.dyn_peer[9983] 	lookupHopsSig:mean 	-nan
scalar Network.dyn_peer[9984] 	lookupTimeSig:mean 	-nan
scalar Network.dyn_peer[9984] 	lookupStabilitySig:mean 	-nan
scalar Network.dyn_peer[9984] 	lookupHopsSig:mean 	-nan
scalar Network.dyn_peer[9985] 	lookupTimeSig:mean 	-nan
scalar Network.dyn_peer[9985] 	lookupStabilitySig:mean 	-nan
scalar Network.dyn_peer[9985] 	lookupHopsSig:mean 	-nan
scalar Network.dyn_peer[9986] 	lookupTimeSig:mean 	-nan
scalar Network.dyn_peer[9986] 	lookupStabilitySig:mean 	-nan
scalar Network.dyn_peer[9986] 	lookupHopsSig:mean 	-nan
scalar Network.dyn_peer[9987] 	lookupTimeSig:mean 	-nan
scalar Network.dyn_peer[9987] 	lookupStabilitySig:mean 	-nan
scalar Network.dyn_peer[9987] 	lookupHopsSig:mean 	-nan
scalar Network.dyn_peer[9988] 	lookupTimeSig:mean 	-nan
scalar Network.dyn_peer[9988] 	lookupStabilitySig:mean 	-nan
scalar Network.dyn_peer[9988] 	lookupHopsSig:mean 	-nan
scalar Network.dyn_peer[9989] 	lookupTimeSig:mean 	-nan
scalar Network.dyn_peer[9989] 	lookupStabilitySig:mean 	-nan
scalar Network.dyn_peer[9989] 	lookupHopsSig:mean 	-nan
scalar Network.dyn_peer[9990] 	lookupTimeSig:mean 	-nan
scalar Network.dyn_peer[9990] 	lookupStabilitySig:mean 	-nan
scalar Network.dyn_peer[9990] 	lookupHopsSig:mean 	-nan
scalar Network.dyn_peer[9991] 	lookupTimeSig:mean 	-nan
scalar Network.dyn_peer[9991] 	lookupStabilitySig:mean 	-nan
scalar Network.dyn_peer[9991] 	lookupHopsSig:mean 	-nan
scalar Network.dyn_peer[9992] 	lookupTimeSig:mean 	-nan
scalar Network.dyn_peer[9992] 	lookupStabilitySig:mean 	-nan
scalar Network.dyn_peer[9992] 	lookupHopsSig:mean 	-nan
scalar Network.dyn_peer[9993] 	lookupTimeSig:mean 	-nan
scalar Network.dyn_peer[9993] 	lookupStabilitySig:mean 	-nan
scalar Network.dyn_peer[9993] 	lookupHopsSig:mean 	-nan
scalar Network.dyn_peer[9994] 	lookupTimeSig:mean 	-nan
scalar Network.dyn_peer[9994] 	lookupStabilitySig:mean 	-nan
scalar Network.dyn_peer[9994] 	lookupHopsSig:mean 	-nan
scalar Network.dyn_peer[9995] 	lookupTimeSig:mean 	-nan
scalar Network.dyn_peer[9995] 	lookupStabilitySig:mean 	-nan
scalar Network.dyn_peer[9995] 	lookupHopsSig:mean 	-nan
scalar Network.dyn_peer[9996] 	lookupTimeSig:mean 	-nan
scalar Network.dyn_peer[9996] 	lookupStabilitySig:mean 	-nan
scalar Network.dyn_peer[9996] 	lookupHopsSig:mean 	-nan
scalar Network.dyn_peer[9997] 	lookupTimeSig:mean 	-nan
scalar Network.dyn_peer[9997] 	lookupStabilitySig:mean 	-nan
scalar Network.dyn_peer[9997] 	lookupHopsSig:mean 	-nan
scalar Network.dyn_peer[9998] 	lookupTimeSig:mean 	-nan
scalar Network.dyn_peer[9998] 	lookupStabilitySig:mean 	-nan
scalar Network.dyn_peer[9998] 	lookupHopsSig:mean 	-nan
scalar Network.dyn_peer[9999] 	lookupTimeSig:mean 	-nan
scalar Network.dyn_peer[9999] 	lookupStabilitySig:mean 	-nan
scalar Network.dyn_peer[9999] 	lookupHopsSig:mean 	-nan
scalar Network.churner 	inGoingSizeSig:mean 	1141.8872781805
