version 2
run Stability2-101-20130528-01:59:47-24168
attr configname Stability2
attr datetime 20130528-01:59:47
attr experiment Stability2
attr inifile omnetpp.ini
attr iterationvars $0=1000
attr iterationvars2 "$0=1000, $repetition=1"
attr measurement $0=1000
attr network Network
attr processid 24168
attr repetition 1
attr replication #1
attr resultdir results
attr runnumber 101
attr seedset 101

scalar Network.dyn_peer[0] 	lookupTimeSig:mean 	3.34375
scalar Network.dyn_peer[0] 	lookupStabilitySig:mean 	0.85694786097156
scalar Network.dyn_peer[0] 	lookupHopsSig:mean 	32.5
scalar Network.dyn_peer[1] 	lookupTimeSig:mean 	2.68125
scalar Network.dyn_peer[1] 	lookupStabilitySig:mean 	0.88062808594259
scalar Network.dyn_peer[1] 	lookupHopsSig:mean 	25.875
scalar Network.dyn_peer[2] 	lookupTimeSig:mean 	3.46
scalar Network.dyn_peer[2] 	lookupStabilitySig:mean 	0.91229633962503
scalar Network.dyn_peer[2] 	lookupHopsSig:mean 	33.65
scalar Network.dyn_peer[3] 	lookupTimeSig:mean 	3.6421052631579
scalar Network.dyn_peer[3] 	lookupStabilitySig:mean 	0.87560947709962
scalar Network.dyn_peer[3] 	lookupHopsSig:mean 	35.473684210526
scalar Network.dyn_peer[4] 	lookupTimeSig:mean 	3.255
scalar Network.dyn_peer[4] 	lookupStabilitySig:mean 	0.8920025494881
scalar Network.dyn_peer[4] 	lookupHopsSig:mean 	31.6
scalar Network.dyn_peer[5] 	lookupTimeSig:mean 	5.0952380952381
scalar Network.dyn_peer[5] 	lookupStabilitySig:mean 	0.88668205692167
scalar Network.dyn_peer[5] 	lookupHopsSig:mean 	50
scalar Network.dyn_peer[6] 	lookupTimeSig:mean 	3.2
scalar Network.dyn_peer[6] 	lookupStabilitySig:mean 	0.90048236532602
scalar Network.dyn_peer[6] 	lookupHopsSig:mean 	31.05
scalar Network.dyn_peer[7] 	lookupTimeSig:mean 	3.6736842105263
scalar Network.dyn_peer[7] 	lookupStabilitySig:mean 	0.8948853929086
scalar Network.dyn_peer[7] 	lookupHopsSig:mean 	35.789473684211
scalar Network.dyn_peer[8] 	lookupTimeSig:mean 	3.046875
scalar Network.dyn_peer[8] 	lookupStabilitySig:mean 	0.92774570232723
scalar Network.dyn_peer[8] 	lookupHopsSig:mean 	29.5
scalar Network.dyn_peer[9] 	lookupTimeSig:mean 	3.1181818181818
scalar Network.dyn_peer[9] 	lookupStabilitySig:mean 	0.89318719123151
scalar Network.dyn_peer[9] 	lookupHopsSig:mean 	30.227272727273
scalar Network.dyn_peer[10] 	lookupTimeSig:mean 	2.215
scalar Network.dyn_peer[10] 	lookupStabilitySig:mean 	0.89541060132906
scalar Network.dyn_peer[10] 	lookupHopsSig:mean 	21.2
scalar Network.dyn_peer[11] 	lookupTimeSig:mean 	3.347619047619
scalar Network.dyn_peer[11] 	lookupStabilitySig:mean 	0.90741756673725
scalar Network.dyn_peer[11] 	lookupHopsSig:mean 	32.52380952381
scalar Network.dyn_peer[12] 	lookupTimeSig:mean 	3.1125
scalar Network.dyn_peer[12] 	lookupStabilitySig:mean 	0.87117832595686
scalar Network.dyn_peer[12] 	lookupHopsSig:mean 	30.1875
scalar Network.dyn_peer[13] 	lookupTimeSig:mean 	3.088
scalar Network.dyn_peer[13] 	lookupStabilitySig:mean 	0.92123475101776
scalar Network.dyn_peer[13] 	lookupHopsSig:mean 	29.92
scalar Network.dyn_peer[14] 	lookupTimeSig:mean 	3
scalar Network.dyn_peer[14] 	lookupStabilitySig:mean 	0.86986976614571
scalar Network.dyn_peer[14] 	lookupHopsSig:mean 	29.0625
scalar Network.dyn_peer[15] 	lookupTimeSig:mean 	2.4789473684211
scalar Network.dyn_peer[15] 	lookupStabilitySig:mean 	0.88999405765514
scalar Network.dyn_peer[15] 	lookupHopsSig:mean 	23.842105263158
scalar Network.dyn_peer[16] 	lookupTimeSig:mean 	2.9285714285714
scalar Network.dyn_peer[16] 	lookupStabilitySig:mean 	0.91036060439157
scalar Network.dyn_peer[16] 	lookupHopsSig:mean 	28.333333333333
scalar Network.dyn_peer[17] 	lookupTimeSig:mean 	2.9470588235294
scalar Network.dyn_peer[17] 	lookupStabilitySig:mean 	0.87391681448721
scalar Network.dyn_peer[17] 	lookupHopsSig:mean 	28.529411764706
scalar Network.dyn_peer[18] 	lookupTimeSig:mean 	2.36
scalar Network.dyn_peer[18] 	lookupStabilitySig:mean 	0.90797199935187
scalar Network.dyn_peer[18] 	lookupHopsSig:mean 	22.65
scalar Network.dyn_peer[19] 	lookupTimeSig:mean 	3.1833333333333
scalar Network.dyn_peer[19] 	lookupStabilitySig:mean 	0.92375169791436
scalar Network.dyn_peer[19] 	lookupHopsSig:mean 	30.875
scalar Network.dyn_peer[20] 	lookupTimeSig:mean 	3.0529411764706
scalar Network.dyn_peer[20] 	lookupStabilitySig:mean 	0.89026434612734
scalar Network.dyn_peer[20] 	lookupHopsSig:mean 	29.588235294118
scalar Network.dyn_peer[21] 	lookupTimeSig:mean 	2.4037037037037
scalar Network.dyn_peer[21] 	lookupStabilitySig:mean 	0.92289052841564
scalar Network.dyn_peer[21] 	lookupHopsSig:mean 	23.074074074074
scalar Network.dyn_peer[22] 	lookupTimeSig:mean 	4.0318181818182
scalar Network.dyn_peer[22] 	lookupStabilitySig:mean 	0.92049970530736
scalar Network.dyn_peer[22] 	lookupHopsSig:mean 	39.363636363636
scalar Network.dyn_peer[23] 	lookupTimeSig:mean 	3.6421052631579
scalar Network.dyn_peer[23] 	lookupStabilitySig:mean 	0.90920733694159
scalar Network.dyn_peer[23] 	lookupHopsSig:mean 	35.473684210526
scalar Network.dyn_peer[24] 	lookupTimeSig:mean 	3.0478260869565
scalar Network.dyn_peer[24] 	lookupStabilitySig:mean 	0.91558047098553
scalar Network.dyn_peer[24] 	lookupHopsSig:mean 	29.521739130435
scalar Network.dyn_peer[25] 	lookupTimeSig:mean 	2.885
scalar Network.dyn_peer[25] 	lookupStabilitySig:mean 	0.89751773744356
scalar Network.dyn_peer[25] 	lookupHopsSig:mean 	27.9
scalar Network.dyn_peer[26] 	lookupTimeSig:mean 	3.125
scalar Network.dyn_peer[26] 	lookupStabilitySig:mean 	0.84632448481473
scalar Network.dyn_peer[26] 	lookupHopsSig:mean 	30.333333333333
scalar Network.dyn_peer[27] 	lookupTimeSig:mean 	3.2
scalar Network.dyn_peer[27] 	lookupStabilitySig:mean 	0.87082412781624
scalar Network.dyn_peer[27] 	lookupHopsSig:mean 	31.076923076923
scalar Network.dyn_peer[28] 	lookupTimeSig:mean 	2.9407407407407
scalar Network.dyn_peer[28] 	lookupStabilitySig:mean 	0.93690956512
scalar Network.dyn_peer[28] 	lookupHopsSig:mean 	28.444444444444
scalar Network.dyn_peer[29] 	lookupTimeSig:mean 	2.6222222222222
scalar Network.dyn_peer[29] 	lookupStabilitySig:mean 	0.89746363321319
scalar Network.dyn_peer[29] 	lookupHopsSig:mean 	25.277777777778
scalar Network.dyn_peer[30] 	lookupTimeSig:mean 	3.3291666666667
scalar Network.dyn_peer[30] 	lookupStabilitySig:mean 	0.92608969282204
scalar Network.dyn_peer[30] 	lookupHopsSig:mean 	32.333333333333
scalar Network.dyn_peer[31] 	lookupTimeSig:mean 	3.9173913043478
scalar Network.dyn_peer[31] 	lookupStabilitySig:mean 	0.91438463988269
scalar Network.dyn_peer[31] 	lookupHopsSig:mean 	38.217391304348
scalar Network.dyn_peer[32] 	lookupTimeSig:mean 	3.156
scalar Network.dyn_peer[32] 	lookupStabilitySig:mean 	0.9237907886412
scalar Network.dyn_peer[32] 	lookupHopsSig:mean 	30.6
scalar Network.dyn_peer[33] 	lookupTimeSig:mean 	3.3318181818182
scalar Network.dyn_peer[33] 	lookupStabilitySig:mean 	0.92240778755778
scalar Network.dyn_peer[33] 	lookupHopsSig:mean 	32.363636363636
scalar Network.dyn_peer[34] 	lookupTimeSig:mean 	3.6117647058824
scalar Network.dyn_peer[34] 	lookupStabilitySig:mean 	0.9061285044231
scalar Network.dyn_peer[34] 	lookupHopsSig:mean 	35.176470588235
scalar Network.dyn_peer[35] 	lookupTimeSig:mean 	2.1823529411765
scalar Network.dyn_peer[35] 	lookupStabilitySig:mean 	0.90829373612616
scalar Network.dyn_peer[35] 	lookupHopsSig:mean 	20.882352941176
scalar Network.dyn_peer[36] 	lookupTimeSig:mean 	3.096
scalar Network.dyn_peer[36] 	lookupStabilitySig:mean 	0.92975420903414
scalar Network.dyn_peer[36] 	lookupHopsSig:mean 	30
scalar Network.dyn_peer[37] 	lookupTimeSig:mean 	2.5809523809524
scalar Network.dyn_peer[37] 	lookupStabilitySig:mean 	0.91922494909903
scalar Network.dyn_peer[37] 	lookupHopsSig:mean 	24.857142857143
scalar Network.dyn_peer[38] 	lookupTimeSig:mean 	4.1541666666667
scalar Network.dyn_peer[38] 	lookupStabilitySig:mean 	0.92018237349112
scalar Network.dyn_peer[38] 	lookupHopsSig:mean 	40.583333333333
scalar Network.dyn_peer[39] 	lookupTimeSig:mean 	2.7125
scalar Network.dyn_peer[39] 	lookupStabilitySig:mean 	0.9359275759889
scalar Network.dyn_peer[39] 	lookupHopsSig:mean 	26.15625
scalar Network.dyn_peer[40] 	lookupTimeSig:mean 	2.1875
scalar Network.dyn_peer[40] 	lookupStabilitySig:mean 	0.89409548105323
scalar Network.dyn_peer[40] 	lookupHopsSig:mean 	20.9375
scalar Network.dyn_peer[41] 	lookupTimeSig:mean 	3.188
scalar Network.dyn_peer[41] 	lookupStabilitySig:mean 	0.91977814146318
scalar Network.dyn_peer[41] 	lookupHopsSig:mean 	30.92
scalar Network.dyn_peer[42] 	lookupTimeSig:mean 	1.9055555555556
scalar Network.dyn_peer[42] 	lookupStabilitySig:mean 	0.90319906920195
scalar Network.dyn_peer[42] 	lookupHopsSig:mean 	18.111111111111
scalar Network.dyn_peer[43] 	lookupTimeSig:mean 	3.8896551724138
scalar Network.dyn_peer[43] 	lookupStabilitySig:mean 	0.94008562022595
scalar Network.dyn_peer[43] 	lookupHopsSig:mean 	37.931034482759
scalar Network.dyn_peer[44] 	lookupTimeSig:mean 	2.9176470588235
scalar Network.dyn_peer[44] 	lookupStabilitySig:mean 	0.95293474286069
scalar Network.dyn_peer[44] 	lookupHopsSig:mean 	28.205882352941
scalar Network.dyn_peer[45] 	lookupTimeSig:mean 	3.1727272727273
scalar Network.dyn_peer[45] 	lookupStabilitySig:mean 	0.92917707907459
scalar Network.dyn_peer[45] 	lookupHopsSig:mean 	30.772727272727
scalar Network.dyn_peer[46] 	lookupTimeSig:mean 	3.2730769230769
scalar Network.dyn_peer[46] 	lookupStabilitySig:mean 	0.93158688133833
scalar Network.dyn_peer[46] 	lookupHopsSig:mean 	31.769230769231
scalar Network.dyn_peer[47] 	lookupTimeSig:mean 	2.5294117647059
scalar Network.dyn_peer[47] 	lookupStabilitySig:mean 	0.93893639595412
scalar Network.dyn_peer[47] 	lookupHopsSig:mean 	24.352941176471
scalar Network.dyn_peer[48] 	lookupTimeSig:mean 	3.204
scalar Network.dyn_peer[48] 	lookupStabilitySig:mean 	0.93342006463557
scalar Network.dyn_peer[48] 	lookupHopsSig:mean 	31.08
scalar Network.dyn_peer[49] 	lookupTimeSig:mean 	3.15
scalar Network.dyn_peer[49] 	lookupStabilitySig:mean 	0.89942917527515
scalar Network.dyn_peer[49] 	lookupHopsSig:mean 	30.5625
scalar Network.dyn_peer[50] 	lookupTimeSig:mean 	3.2206896551724
scalar Network.dyn_peer[50] 	lookupStabilitySig:mean 	0.93611902405572
scalar Network.dyn_peer[50] 	lookupHopsSig:mean 	31.241379310345
scalar Network.dyn_peer[51] 	lookupTimeSig:mean 	3.6
scalar Network.dyn_peer[51] 	lookupStabilitySig:mean 	0.90758055897037
scalar Network.dyn_peer[51] 	lookupHopsSig:mean 	35.052631578947
scalar Network.dyn_peer[52] 	lookupTimeSig:mean 	1.9
scalar Network.dyn_peer[52] 	lookupStabilitySig:mean 	0.93400389128365
scalar Network.dyn_peer[52] 	lookupHopsSig:mean 	18.066666666667
scalar Network.dyn_peer[53] 	lookupTimeSig:mean 	3.05
scalar Network.dyn_peer[53] 	lookupStabilitySig:mean 	0.92480315044264
scalar Network.dyn_peer[53] 	lookupHopsSig:mean 	29.555555555556
scalar Network.dyn_peer[54] 	lookupTimeSig:mean 	3.125
scalar Network.dyn_peer[54] 	lookupStabilitySig:mean 	0.91848349061911
scalar Network.dyn_peer[54] 	lookupHopsSig:mean 	30.3125
scalar Network.dyn_peer[55] 	lookupTimeSig:mean 	4.2636363636364
scalar Network.dyn_peer[55] 	lookupStabilitySig:mean 	0.87357918499038
scalar Network.dyn_peer[55] 	lookupHopsSig:mean 	41.727272727273
scalar Network.dyn_peer[56] 	lookupTimeSig:mean 	2.5
scalar Network.dyn_peer[56] 	lookupStabilitySig:mean 	0.9213674964034
scalar Network.dyn_peer[56] 	lookupHopsSig:mean 	24.05
scalar Network.dyn_peer[57] 	lookupTimeSig:mean 	3.5684210526316
scalar Network.dyn_peer[57] 	lookupStabilitySig:mean 	0.95072941294577
scalar Network.dyn_peer[57] 	lookupHopsSig:mean 	34.736842105263
scalar Network.dyn_peer[58] 	lookupTimeSig:mean 	3.935
scalar Network.dyn_peer[58] 	lookupStabilitySig:mean 	0.9360105447704
scalar Network.dyn_peer[58] 	lookupHopsSig:mean 	38.4
scalar Network.dyn_peer[59] 	lookupTimeSig:mean 	2.5208333333333
scalar Network.dyn_peer[59] 	lookupStabilitySig:mean 	0.93685116853643
scalar Network.dyn_peer[59] 	lookupHopsSig:mean 	24.25
scalar Network.dyn_peer[60] 	lookupTimeSig:mean 	2.0941176470588
scalar Network.dyn_peer[60] 	lookupStabilitySig:mean 	0.92877904325724
scalar Network.dyn_peer[60] 	lookupHopsSig:mean 	20
scalar Network.dyn_peer[61] 	lookupTimeSig:mean 	2.937037037037
scalar Network.dyn_peer[61] 	lookupStabilitySig:mean 	0.94482913495826
scalar Network.dyn_peer[61] 	lookupHopsSig:mean 	28.407407407407
scalar Network.dyn_peer[62] 	lookupTimeSig:mean 	2.0666666666667
scalar Network.dyn_peer[62] 	lookupStabilitySig:mean 	0.90951925479264
scalar Network.dyn_peer[62] 	lookupHopsSig:mean 	19.75
scalar Network.dyn_peer[63] 	lookupTimeSig:mean 	2.7142857142857
scalar Network.dyn_peer[63] 	lookupStabilitySig:mean 	0.93716853331508
scalar Network.dyn_peer[63] 	lookupHopsSig:mean 	26.190476190476
scalar Network.dyn_peer[64] 	lookupTimeSig:mean 	2.7368421052632
scalar Network.dyn_peer[64] 	lookupStabilitySig:mean 	0.93301637871436
scalar Network.dyn_peer[64] 	lookupHopsSig:mean 	26.421052631579
scalar Network.dyn_peer[65] 	lookupTimeSig:mean 	3.5461538461538
scalar Network.dyn_peer[65] 	lookupStabilitySig:mean 	0.95960300784701
scalar Network.dyn_peer[65] 	lookupHopsSig:mean 	34.5
scalar Network.dyn_peer[66] 	lookupTimeSig:mean 	3.7130434782609
scalar Network.dyn_peer[66] 	lookupStabilitySig:mean 	0.94159646870811
scalar Network.dyn_peer[66] 	lookupHopsSig:mean 	36.173913043478
scalar Network.dyn_peer[67] 	lookupTimeSig:mean 	3.3318181818182
scalar Network.dyn_peer[67] 	lookupStabilitySig:mean 	0.93483529373241
scalar Network.dyn_peer[67] 	lookupHopsSig:mean 	32.363636363636
scalar Network.dyn_peer[68] 	lookupTimeSig:mean 	3.48
scalar Network.dyn_peer[68] 	lookupStabilitySig:mean 	0.9341932977477
scalar Network.dyn_peer[68] 	lookupHopsSig:mean 	33.85
scalar Network.dyn_peer[69] 	lookupTimeSig:mean 	2.405
scalar Network.dyn_peer[69] 	lookupStabilitySig:mean 	0.93907712240471
scalar Network.dyn_peer[69] 	lookupHopsSig:mean 	23.1
scalar Network.dyn_peer[70] 	lookupTimeSig:mean 	3.46
scalar Network.dyn_peer[70] 	lookupStabilitySig:mean 	0.93909070567461
scalar Network.dyn_peer[70] 	lookupHopsSig:mean 	33.65
scalar Network.dyn_peer[71] 	lookupTimeSig:mean 	4.1714285714286
scalar Network.dyn_peer[71] 	lookupStabilitySig:mean 	0.93222210618357
scalar Network.dyn_peer[71] 	lookupHopsSig:mean 	40.761904761905
scalar Network.dyn_peer[72] 	lookupTimeSig:mean 	2.4916666666667
scalar Network.dyn_peer[72] 	lookupStabilitySig:mean 	0.9449708116493
scalar Network.dyn_peer[72] 	lookupHopsSig:mean 	23.958333333333
scalar Network.dyn_peer[73] 	lookupTimeSig:mean 	3.4444444444444
scalar Network.dyn_peer[73] 	lookupStabilitySig:mean 	0.94953279773687
scalar Network.dyn_peer[73] 	lookupHopsSig:mean 	33.481481481481
scalar Network.dyn_peer[74] 	lookupTimeSig:mean 	3.4862068965517
scalar Network.dyn_peer[74] 	lookupStabilitySig:mean 	0.95080830910693
scalar Network.dyn_peer[74] 	lookupHopsSig:mean 	33.896551724138
scalar Network.dyn_peer[75] 	lookupTimeSig:mean 	2.59
scalar Network.dyn_peer[75] 	lookupStabilitySig:mean 	0.89662414924242
scalar Network.dyn_peer[75] 	lookupHopsSig:mean 	25
scalar Network.dyn_peer[76] 	lookupTimeSig:mean 	2.3888888888889
scalar Network.dyn_peer[76] 	lookupStabilitySig:mean 	0.95891797560681
scalar Network.dyn_peer[76] 	lookupHopsSig:mean 	22.925925925926
scalar Network.dyn_peer[77] 	lookupTimeSig:mean 	2.7916666666667
scalar Network.dyn_peer[77] 	lookupStabilitySig:mean 	0.965739746709
scalar Network.dyn_peer[77] 	lookupHopsSig:mean 	26.958333333333
scalar Network.dyn_peer[78] 	lookupTimeSig:mean 	3.5263157894737
scalar Network.dyn_peer[78] 	lookupStabilitySig:mean 	0.94144939028315
scalar Network.dyn_peer[78] 	lookupHopsSig:mean 	34.315789473684
scalar Network.dyn_peer[79] 	lookupTimeSig:mean 	2.45
scalar Network.dyn_peer[79] 	lookupStabilitySig:mean 	0.94037904612064
scalar Network.dyn_peer[79] 	lookupHopsSig:mean 	23.545454545455
scalar Network.dyn_peer[80] 	lookupTimeSig:mean 	3.2619047619048
scalar Network.dyn_peer[80] 	lookupStabilitySig:mean 	0.93391796350036
scalar Network.dyn_peer[80] 	lookupHopsSig:mean 	31.666666666667
scalar Network.dyn_peer[81] 	lookupTimeSig:mean 	2.735
scalar Network.dyn_peer[81] 	lookupStabilitySig:mean 	0.94368067991745
scalar Network.dyn_peer[81] 	lookupHopsSig:mean 	26.4
scalar Network.dyn_peer[82] 	lookupTimeSig:mean 	2.54
scalar Network.dyn_peer[82] 	lookupStabilitySig:mean 	0.95029495663941
scalar Network.dyn_peer[82] 	lookupHopsSig:mean 	24.44
scalar Network.dyn_peer[83] 	lookupTimeSig:mean 	2.0533333333333
scalar Network.dyn_peer[83] 	lookupStabilitySig:mean 	0.92799592881153
scalar Network.dyn_peer[83] 	lookupHopsSig:mean 	19.6
scalar Network.dyn_peer[84] 	lookupTimeSig:mean 	2.4210526315789
scalar Network.dyn_peer[84] 	lookupStabilitySig:mean 	0.92957608525543
scalar Network.dyn_peer[84] 	lookupHopsSig:mean 	23.263157894737
scalar Network.dyn_peer[85] 	lookupTimeSig:mean 	3.1576923076923
scalar Network.dyn_peer[85] 	lookupStabilitySig:mean 	0.95004480053635
scalar Network.dyn_peer[85] 	lookupHopsSig:mean 	30.615384615385
scalar Network.dyn_peer[86] 	lookupTimeSig:mean 	2.4428571428571
scalar Network.dyn_peer[86] 	lookupStabilitySig:mean 	0.94758982284527
scalar Network.dyn_peer[86] 	lookupHopsSig:mean 	23.47619047619
scalar Network.dyn_peer[87] 	lookupTimeSig:mean 	3.0761904761905
scalar Network.dyn_peer[87] 	lookupStabilitySig:mean 	0.93562095998121
scalar Network.dyn_peer[87] 	lookupHopsSig:mean 	29.809523809524
scalar Network.dyn_peer[88] 	lookupTimeSig:mean 	4.1
scalar Network.dyn_peer[88] 	lookupStabilitySig:mean 	0.92153935315302
scalar Network.dyn_peer[88] 	lookupHopsSig:mean 	40.076923076923
scalar Network.dyn_peer[89] 	lookupTimeSig:mean 	2.7578947368421
scalar Network.dyn_peer[89] 	lookupStabilitySig:mean 	0.93129212796492
scalar Network.dyn_peer[89] 	lookupHopsSig:mean 	26.631578947368
scalar Network.dyn_peer[90] 	lookupTimeSig:mean 	3.1363636363636
scalar Network.dyn_peer[90] 	lookupStabilitySig:mean 	0.94288971330124
scalar Network.dyn_peer[90] 	lookupHopsSig:mean 	30.409090909091
scalar Network.dyn_peer[91] 	lookupTimeSig:mean 	3.637037037037
scalar Network.dyn_peer[91] 	lookupStabilitySig:mean 	0.96466422404585
scalar Network.dyn_peer[91] 	lookupHopsSig:mean 	35.407407407407
scalar Network.dyn_peer[92] 	lookupTimeSig:mean 	2.5368421052632
scalar Network.dyn_peer[92] 	lookupStabilitySig:mean 	0.94554616327054
scalar Network.dyn_peer[92] 	lookupHopsSig:mean 	24.421052631579
scalar Network.dyn_peer[93] 	lookupTimeSig:mean 	2.4875
scalar Network.dyn_peer[93] 	lookupStabilitySig:mean 	0.93704369536135
scalar Network.dyn_peer[93] 	lookupHopsSig:mean 	23.9375
scalar Network.dyn_peer[94] 	lookupTimeSig:mean 	3.2363636363636
scalar Network.dyn_peer[94] 	lookupStabilitySig:mean 	0.94336047080684
scalar Network.dyn_peer[94] 	lookupHopsSig:mean 	31.409090909091
scalar Network.dyn_peer[95] 	lookupTimeSig:mean 	2.9041666666667
scalar Network.dyn_peer[95] 	lookupStabilitySig:mean 	0.95574586905908
scalar Network.dyn_peer[95] 	lookupHopsSig:mean 	28.083333333333
scalar Network.dyn_peer[96] 	lookupTimeSig:mean 	2.9148148148148
scalar Network.dyn_peer[96] 	lookupStabilitySig:mean 	0.95980812503128
scalar Network.dyn_peer[96] 	lookupHopsSig:mean 	28.185185185185
scalar Network.dyn_peer[97] 	lookupTimeSig:mean 	2.7571428571429
scalar Network.dyn_peer[97] 	lookupStabilitySig:mean 	0.94754771012369
scalar Network.dyn_peer[97] 	lookupHopsSig:mean 	26.619047619048
scalar Network.dyn_peer[98] 	lookupTimeSig:mean 	2.3266666666667
scalar Network.dyn_peer[98] 	lookupStabilitySig:mean 	0.92888292533656
scalar Network.dyn_peer[98] 	lookupHopsSig:mean 	22.333333333333
scalar Network.dyn_peer[99] 	lookupTimeSig:mean 	3.5782608695652
scalar Network.dyn_peer[99] 	lookupStabilitySig:mean 	0.95468482367047
scalar Network.dyn_peer[99] 	lookupHopsSig:mean 	34.826086956522
scalar Network.dyn_peer[100] 	lookupTimeSig:mean 	3.8210526315789
scalar Network.dyn_peer[100] 	lookupStabilitySig:mean 	0.94072755989864
scalar Network.dyn_peer[100] 	lookupHopsSig:mean 	37.263157894737
scalar Network.dyn_peer[101] 	lookupTimeSig:mean 	3.2818181818182
scalar Network.dyn_peer[101] 	lookupStabilitySig:mean 	0.9507704061583
scalar Network.dyn_peer[101] 	lookupHopsSig:mean 	31.863636363636
scalar Network.dyn_peer[102] 	lookupTimeSig:mean 	2.36
scalar Network.dyn_peer[102] 	lookupStabilitySig:mean 	0.9451855304942
scalar Network.dyn_peer[102] 	lookupHopsSig:mean 	22.65
scalar Network.dyn_peer[103] 	lookupTimeSig:mean 	3
scalar Network.dyn_peer[103] 	lookupStabilitySig:mean 	0.91660183999274
scalar Network.dyn_peer[103] 	lookupHopsSig:mean 	29.111111111111
scalar Network.dyn_peer[104] 	lookupTimeSig:mean 	3.56875
scalar Network.dyn_peer[104] 	lookupStabilitySig:mean 	0.92581664428872
scalar Network.dyn_peer[104] 	lookupHopsSig:mean 	34.75
scalar Network.dyn_peer[105] 	lookupTimeSig:mean 	3.05
scalar Network.dyn_peer[105] 	lookupStabilitySig:mean 	0.944330831123
scalar Network.dyn_peer[105] 	lookupHopsSig:mean 	29.555555555556
scalar Network.dyn_peer[106] 	lookupTimeSig:mean 	3.62
scalar Network.dyn_peer[106] 	lookupStabilitySig:mean 	0.94933129628189
scalar Network.dyn_peer[106] 	lookupHopsSig:mean 	35.25
scalar Network.dyn_peer[107] 	lookupTimeSig:mean 	3.20625
scalar Network.dyn_peer[107] 	lookupStabilitySig:mean 	0.92723463152652
scalar Network.dyn_peer[107] 	lookupHopsSig:mean 	31.125
scalar Network.dyn_peer[108] 	lookupTimeSig:mean 	2.62
scalar Network.dyn_peer[108] 	lookupStabilitySig:mean 	0.96131953320466
scalar Network.dyn_peer[108] 	lookupHopsSig:mean 	25.24
scalar Network.dyn_peer[109] 	lookupTimeSig:mean 	2.5857142857143
scalar Network.dyn_peer[109] 	lookupStabilitySig:mean 	0.95284101125296
scalar Network.dyn_peer[109] 	lookupHopsSig:mean 	24.904761904762
scalar Network.dyn_peer[110] 	lookupTimeSig:mean 	4.1
scalar Network.dyn_peer[110] 	lookupStabilitySig:mean 	0.93360449134239
scalar Network.dyn_peer[110] 	lookupHopsSig:mean 	40.071428571429
scalar Network.dyn_peer[111] 	lookupTimeSig:mean 	3.2086956521739
scalar Network.dyn_peer[111] 	lookupStabilitySig:mean 	0.95884644369716
scalar Network.dyn_peer[111] 	lookupHopsSig:mean 	31.130434782609
scalar Network.dyn_peer[112] 	lookupTimeSig:mean 	2.4133333333333
scalar Network.dyn_peer[112] 	lookupStabilitySig:mean 	0.92926471391693
scalar Network.dyn_peer[112] 	lookupHopsSig:mean 	23.2
scalar Network.dyn_peer[113] 	lookupTimeSig:mean 	1.8529411764706
scalar Network.dyn_peer[113] 	lookupStabilitySig:mean 	0.94160705793868
scalar Network.dyn_peer[113] 	lookupHopsSig:mean 	17.588235294118
scalar Network.dyn_peer[114] 	lookupTimeSig:mean 	2.7
scalar Network.dyn_peer[114] 	lookupStabilitySig:mean 	0.95312046264703
scalar Network.dyn_peer[114] 	lookupHopsSig:mean 	26.04347826087
scalar Network.dyn_peer[115] 	lookupTimeSig:mean 	2.025
scalar Network.dyn_peer[115] 	lookupStabilitySig:mean 	0.91609329881612
scalar Network.dyn_peer[115] 	lookupHopsSig:mean 	19.375
scalar Network.dyn_peer[116] 	lookupTimeSig:mean 	3.736
scalar Network.dyn_peer[116] 	lookupStabilitySig:mean 	0.95837692407891
scalar Network.dyn_peer[116] 	lookupHopsSig:mean 	36.4
scalar Network.dyn_peer[117] 	lookupTimeSig:mean 	3.1352941176471
scalar Network.dyn_peer[117] 	lookupStabilitySig:mean 	0.94925518059993
scalar Network.dyn_peer[117] 	lookupHopsSig:mean 	30.411764705882
scalar Network.dyn_peer[118] 	lookupTimeSig:mean 	3.5235294117647
scalar Network.dyn_peer[118] 	lookupStabilitySig:mean 	0.93701002804343
scalar Network.dyn_peer[118] 	lookupHopsSig:mean 	34.294117647059
scalar Network.dyn_peer[119] 	lookupTimeSig:mean 	3.4444444444444
scalar Network.dyn_peer[119] 	lookupStabilitySig:mean 	0.96160586292131
scalar Network.dyn_peer[119] 	lookupHopsSig:mean 	33.481481481481
scalar Network.dyn_peer[120] 	lookupTimeSig:mean 	3.5789473684211
scalar Network.dyn_peer[120] 	lookupStabilitySig:mean 	0.94791931445759
scalar Network.dyn_peer[120] 	lookupHopsSig:mean 	34.842105263158
scalar Network.dyn_peer[121] 	lookupTimeSig:mean 	3.2888888888889
scalar Network.dyn_peer[121] 	lookupStabilitySig:mean 	0.96108162691127
scalar Network.dyn_peer[121] 	lookupHopsSig:mean 	31.925925925926
scalar Network.dyn_peer[122] 	lookupTimeSig:mean 	3.5214285714286
scalar Network.dyn_peer[122] 	lookupStabilitySig:mean 	0.96965656061989
scalar Network.dyn_peer[122] 	lookupHopsSig:mean 	34.25
scalar Network.dyn_peer[123] 	lookupTimeSig:mean 	2.6038461538462
scalar Network.dyn_peer[123] 	lookupStabilitySig:mean 	0.9571659177085
scalar Network.dyn_peer[123] 	lookupHopsSig:mean 	25.076923076923
scalar Network.dyn_peer[124] 	lookupTimeSig:mean 	3.1666666666667
scalar Network.dyn_peer[124] 	lookupStabilitySig:mean 	0.9516346351676
scalar Network.dyn_peer[124] 	lookupHopsSig:mean 	30.714285714286
scalar Network.dyn_peer[125] 	lookupTimeSig:mean 	4.2454545454545
scalar Network.dyn_peer[125] 	lookupStabilitySig:mean 	0.94907943412281
scalar Network.dyn_peer[125] 	lookupHopsSig:mean 	41.5
scalar Network.dyn_peer[126] 	lookupTimeSig:mean 	4.2111111111111
scalar Network.dyn_peer[126] 	lookupStabilitySig:mean 	0.94861428501705
scalar Network.dyn_peer[126] 	lookupHopsSig:mean 	41.166666666667
scalar Network.dyn_peer[127] 	lookupTimeSig:mean 	2.25
scalar Network.dyn_peer[127] 	lookupStabilitySig:mean 	0.93970152549446
scalar Network.dyn_peer[127] 	lookupHopsSig:mean 	21.583333333333
scalar Network.dyn_peer[128] 	lookupTimeSig:mean 	3.0217391304348
scalar Network.dyn_peer[128] 	lookupStabilitySig:mean 	0.94968779083422
scalar Network.dyn_peer[128] 	lookupHopsSig:mean 	29.260869565217
scalar Network.dyn_peer[129] 	lookupTimeSig:mean 	5.3692307692308
scalar Network.dyn_peer[129] 	lookupStabilitySig:mean 	0.94548590989927
scalar Network.dyn_peer[129] 	lookupHopsSig:mean 	52.769230769231
scalar Network.dyn_peer[130] 	lookupTimeSig:mean 	2.3230769230769
scalar Network.dyn_peer[130] 	lookupStabilitySig:mean 	0.92764710548979
scalar Network.dyn_peer[130] 	lookupHopsSig:mean 	22.307692307692
scalar Network.dyn_peer[131] 	lookupTimeSig:mean 	2.5789473684211
scalar Network.dyn_peer[131] 	lookupStabilitySig:mean 	0.95368735879464
scalar Network.dyn_peer[131] 	lookupHopsSig:mean 	24.842105263158
scalar Network.dyn_peer[132] 	lookupTimeSig:mean 	4.0055555555556
scalar Network.dyn_peer[132] 	lookupStabilitySig:mean 	0.94734089646954
scalar Network.dyn_peer[132] 	lookupHopsSig:mean 	39.111111111111
scalar Network.dyn_peer[133] 	lookupTimeSig:mean 	3.2095238095238
scalar Network.dyn_peer[133] 	lookupStabilitySig:mean 	0.95748844619707
scalar Network.dyn_peer[133] 	lookupHopsSig:mean 	31.142857142857
scalar Network.dyn_peer[134] 	lookupTimeSig:mean 	3.21
scalar Network.dyn_peer[134] 	lookupStabilitySig:mean 	0.95491835469147
scalar Network.dyn_peer[134] 	lookupHopsSig:mean 	31.15
scalar Network.dyn_peer[135] 	lookupTimeSig:mean 	3.6681818181818
scalar Network.dyn_peer[135] 	lookupStabilitySig:mean 	0.95052257667042
scalar Network.dyn_peer[135] 	lookupHopsSig:mean 	35.727272727273
scalar Network.dyn_peer[136] 	lookupTimeSig:mean 	2.7421052631579
scalar Network.dyn_peer[136] 	lookupStabilitySig:mean 	0.95159145738733
scalar Network.dyn_peer[136] 	lookupHopsSig:mean 	26.473684210526
scalar Network.dyn_peer[137] 	lookupTimeSig:mean 	3.18125
scalar Network.dyn_peer[137] 	lookupStabilitySig:mean 	0.94660283968551
scalar Network.dyn_peer[137] 	lookupHopsSig:mean 	30.875
scalar Network.dyn_peer[138] 	lookupTimeSig:mean 	2.8714285714286
scalar Network.dyn_peer[138] 	lookupStabilitySig:mean 	0.94592188604708
scalar Network.dyn_peer[138] 	lookupHopsSig:mean 	27.785714285714
scalar Network.dyn_peer[139] 	lookupTimeSig:mean 	2.4882352941176
scalar Network.dyn_peer[139] 	lookupStabilitySig:mean 	0.95039348974002
scalar Network.dyn_peer[139] 	lookupHopsSig:mean 	23.941176470588
scalar Network.dyn_peer[140] 	lookupTimeSig:mean 	2.8590909090909
scalar Network.dyn_peer[140] 	lookupStabilitySig:mean 	0.95142418754139
scalar Network.dyn_peer[140] 	lookupHopsSig:mean 	27.636363636364
scalar Network.dyn_peer[141] 	lookupTimeSig:mean 	2.3941176470588
scalar Network.dyn_peer[141] 	lookupStabilitySig:mean 	0.94589121153523
scalar Network.dyn_peer[141] 	lookupHopsSig:mean 	23
scalar Network.dyn_peer[142] 	lookupTimeSig:mean 	2.1318181818182
scalar Network.dyn_peer[142] 	lookupStabilitySig:mean 	0.96344008968762
scalar Network.dyn_peer[142] 	lookupHopsSig:mean 	20.363636363636
scalar Network.dyn_peer[143] 	lookupTimeSig:mean 	3.9
scalar Network.dyn_peer[143] 	lookupStabilitySig:mean 	0.96542031463722
scalar Network.dyn_peer[143] 	lookupHopsSig:mean 	38.04347826087
scalar Network.dyn_peer[144] 	lookupTimeSig:mean 	2.9285714285714
scalar Network.dyn_peer[144] 	lookupStabilitySig:mean 	0.93469459260814
scalar Network.dyn_peer[144] 	lookupHopsSig:mean 	28.357142857143
scalar Network.dyn_peer[145] 	lookupTimeSig:mean 	3.85625
scalar Network.dyn_peer[145] 	lookupStabilitySig:mean 	0.94291989587509
scalar Network.dyn_peer[145] 	lookupHopsSig:mean 	37.625
scalar Network.dyn_peer[146] 	lookupTimeSig:mean 	4.0695652173913
scalar Network.dyn_peer[146] 	lookupStabilitySig:mean 	0.96195623037689
scalar Network.dyn_peer[146] 	lookupHopsSig:mean 	39.739130434783
scalar Network.dyn_peer[147] 	lookupTimeSig:mean 	3.0375
scalar Network.dyn_peer[147] 	lookupStabilitySig:mean 	0.96125827663491
scalar Network.dyn_peer[147] 	lookupHopsSig:mean 	29.4375
scalar Network.dyn_peer[148] 	lookupTimeSig:mean 	3.2857142857143
scalar Network.dyn_peer[148] 	lookupStabilitySig:mean 	0.94996016625581
scalar Network.dyn_peer[148] 	lookupHopsSig:mean 	31.928571428571
scalar Network.dyn_peer[149] 	lookupTimeSig:mean 	3.0032258064516
scalar Network.dyn_peer[149] 	lookupStabilitySig:mean 	0.96915298309402
scalar Network.dyn_peer[149] 	lookupHopsSig:mean 	29.064516129032
scalar Network.dyn_peer[150] 	lookupTimeSig:mean 	2.4347826086957
scalar Network.dyn_peer[150] 	lookupStabilitySig:mean 	0.96168460892311
scalar Network.dyn_peer[150] 	lookupHopsSig:mean 	23.391304347826
scalar Network.dyn_peer[151] 	lookupTimeSig:mean 	3.0941176470588
scalar Network.dyn_peer[151] 	lookupStabilitySig:mean 	0.95078185485566
scalar Network.dyn_peer[151] 	lookupHopsSig:mean 	30
scalar Network.dyn_peer[152] 	lookupTimeSig:mean 	2.4
scalar Network.dyn_peer[152] 	lookupStabilitySig:mean 	0.9399717136716
scalar Network.dyn_peer[152] 	lookupHopsSig:mean 	23.076923076923
scalar Network.dyn_peer[153] 	lookupTimeSig:mean 	3.15
scalar Network.dyn_peer[153] 	lookupStabilitySig:mean 	0.96466174759553
scalar Network.dyn_peer[153] 	lookupHopsSig:mean 	30.535714285714
scalar Network.dyn_peer[154] 	lookupTimeSig:mean 	3.972
scalar Network.dyn_peer[154] 	lookupStabilitySig:mean 	0.96357868935913
scalar Network.dyn_peer[154] 	lookupHopsSig:mean 	38.76
scalar Network.dyn_peer[155] 	lookupTimeSig:mean 	2.96875
scalar Network.dyn_peer[155] 	lookupStabilitySig:mean 	0.96385488461237
scalar Network.dyn_peer[155] 	lookupHopsSig:mean 	28.75
scalar Network.dyn_peer[156] 	lookupTimeSig:mean 	2.7666666666667
scalar Network.dyn_peer[156] 	lookupStabilitySig:mean 	0.95741150570102
scalar Network.dyn_peer[156] 	lookupHopsSig:mean 	26.733333333333
scalar Network.dyn_peer[157] 	lookupTimeSig:mean 	3.4772727272727
scalar Network.dyn_peer[157] 	lookupStabilitySig:mean 	0.96201234084385
scalar Network.dyn_peer[157] 	lookupHopsSig:mean 	33.818181818182
scalar Network.dyn_peer[158] 	lookupTimeSig:mean 	2.9764705882353
scalar Network.dyn_peer[158] 	lookupStabilitySig:mean 	0.9516643240007
scalar Network.dyn_peer[158] 	lookupHopsSig:mean 	28.823529411765
scalar Network.dyn_peer[159] 	lookupTimeSig:mean 	4.9352941176471
scalar Network.dyn_peer[159] 	lookupStabilitySig:mean 	0.95060081440298
scalar Network.dyn_peer[159] 	lookupHopsSig:mean 	48.411764705882
scalar Network.dyn_peer[160] 	lookupTimeSig:mean 	1.8076923076923
scalar Network.dyn_peer[160] 	lookupStabilitySig:mean 	0.94373890642936
scalar Network.dyn_peer[160] 	lookupHopsSig:mean 	17.153846153846
scalar Network.dyn_peer[161] 	lookupTimeSig:mean 	2.40625
scalar Network.dyn_peer[161] 	lookupStabilitySig:mean 	0.94859131656995
scalar Network.dyn_peer[161] 	lookupHopsSig:mean 	23.125
scalar Network.dyn_peer[162] 	lookupTimeSig:mean 	2.9208333333333
scalar Network.dyn_peer[162] 	lookupStabilitySig:mean 	0.95856917108661
scalar Network.dyn_peer[162] 	lookupHopsSig:mean 	28.25
scalar Network.dyn_peer[163] 	lookupTimeSig:mean 	2.5260869565217
scalar Network.dyn_peer[163] 	lookupStabilitySig:mean 	0.96004307534262
scalar Network.dyn_peer[163] 	lookupHopsSig:mean 	24.304347826087
scalar Network.dyn_peer[164] 	lookupTimeSig:mean 	3.275
scalar Network.dyn_peer[164] 	lookupStabilitySig:mean 	0.95900709321722
scalar Network.dyn_peer[164] 	lookupHopsSig:mean 	31.8
scalar Network.dyn_peer[165] 	lookupTimeSig:mean 	4.0388888888889
scalar Network.dyn_peer[165] 	lookupStabilitySig:mean 	0.95993547854272
scalar Network.dyn_peer[165] 	lookupHopsSig:mean 	39.444444444444
scalar Network.dyn_peer[166] 	lookupTimeSig:mean 	2.4952380952381
scalar Network.dyn_peer[166] 	lookupStabilitySig:mean 	0.9611882183346
scalar Network.dyn_peer[166] 	lookupHopsSig:mean 	24
scalar Network.dyn_peer[167] 	lookupTimeSig:mean 	3.2066666666667
scalar Network.dyn_peer[167] 	lookupStabilitySig:mean 	0.94350418997928
scalar Network.dyn_peer[167] 	lookupHopsSig:mean 	31.133333333333
scalar Network.dyn_peer[168] 	lookupTimeSig:mean 	3.1192307692308
scalar Network.dyn_peer[168] 	lookupStabilitySig:mean 	0.96997613503705
scalar Network.dyn_peer[168] 	lookupHopsSig:mean 	30.230769230769
scalar Network.dyn_peer[169] 	lookupTimeSig:mean 	4.0333333333333
scalar Network.dyn_peer[169] 	lookupStabilitySig:mean 	0.96164802001375
scalar Network.dyn_peer[169] 	lookupHopsSig:mean 	39.37037037037
scalar Network.dyn_peer[170] 	lookupTimeSig:mean 	1.8375
scalar Network.dyn_peer[170] 	lookupStabilitySig:mean 	0.96406932084938
scalar Network.dyn_peer[170] 	lookupHopsSig:mean 	17.4375
scalar Network.dyn_peer[171] 	lookupTimeSig:mean 	2.0318181818182
scalar Network.dyn_peer[171] 	lookupStabilitySig:mean 	0.96410951893565
scalar Network.dyn_peer[171] 	lookupHopsSig:mean 	19.363636363636
scalar Network.dyn_peer[172] 	lookupTimeSig:mean 	2.26
scalar Network.dyn_peer[172] 	lookupStabilitySig:mean 	0.94531979955112
scalar Network.dyn_peer[172] 	lookupHopsSig:mean 	21.666666666667
scalar Network.dyn_peer[173] 	lookupTimeSig:mean 	1.95
scalar Network.dyn_peer[173] 	lookupStabilitySig:mean 	0.95440744158986
scalar Network.dyn_peer[173] 	lookupHopsSig:mean 	18.5625
scalar Network.dyn_peer[174] 	lookupTimeSig:mean 	3.5818181818182
scalar Network.dyn_peer[174] 	lookupStabilitySig:mean 	0.9606159013188
scalar Network.dyn_peer[174] 	lookupHopsSig:mean 	34.863636363636
scalar Network.dyn_peer[175] 	lookupTimeSig:mean 	3.0923076923077
scalar Network.dyn_peer[175] 	lookupStabilitySig:mean 	0.9633879263151
scalar Network.dyn_peer[175] 	lookupHopsSig:mean 	29.961538461538
scalar Network.dyn_peer[176] 	lookupTimeSig:mean 	3.4076923076923
scalar Network.dyn_peer[176] 	lookupStabilitySig:mean 	0.96643853860979
scalar Network.dyn_peer[176] 	lookupHopsSig:mean 	33.115384615385
scalar Network.dyn_peer[177] 	lookupTimeSig:mean 	3
scalar Network.dyn_peer[177] 	lookupStabilitySig:mean 	0.93865092204263
scalar Network.dyn_peer[177] 	lookupHopsSig:mean 	29.066666666667
scalar Network.dyn_peer[178] 	lookupTimeSig:mean 	2.6272727272727
scalar Network.dyn_peer[178] 	lookupStabilitySig:mean 	0.95010341081599
scalar Network.dyn_peer[178] 	lookupHopsSig:mean 	25.363636363636
scalar Network.dyn_peer[179] 	lookupTimeSig:mean 	2.4714285714286
scalar Network.dyn_peer[179] 	lookupStabilitySig:mean 	0.96890556706265
scalar Network.dyn_peer[179] 	lookupHopsSig:mean 	23.75
scalar Network.dyn_peer[180] 	lookupTimeSig:mean 	2.89
scalar Network.dyn_peer[180] 	lookupStabilitySig:mean 	0.96413038484752
scalar Network.dyn_peer[180] 	lookupHopsSig:mean 	27.95
scalar Network.dyn_peer[181] 	lookupTimeSig:mean 	4.18125
scalar Network.dyn_peer[181] 	lookupStabilitySig:mean 	0.95475480816822
scalar Network.dyn_peer[181] 	lookupHopsSig:mean 	40.875
scalar Network.dyn_peer[182] 	lookupTimeSig:mean 	2.8962962962963
scalar Network.dyn_peer[182] 	lookupStabilitySig:mean 	0.96991974200743
scalar Network.dyn_peer[182] 	lookupHopsSig:mean 	28
scalar Network.dyn_peer[183] 	lookupTimeSig:mean 	2.95
scalar Network.dyn_peer[183] 	lookupStabilitySig:mean 	0.96460280650839
scalar Network.dyn_peer[183] 	lookupHopsSig:mean 	28.541666666667
scalar Network.dyn_peer[184] 	lookupTimeSig:mean 	3.425
scalar Network.dyn_peer[184] 	lookupStabilitySig:mean 	0.9640110426238
scalar Network.dyn_peer[184] 	lookupHopsSig:mean 	33.291666666667
scalar Network.dyn_peer[185] 	lookupTimeSig:mean 	3.15
scalar Network.dyn_peer[185] 	lookupStabilitySig:mean 	0.97092264838672
scalar Network.dyn_peer[185] 	lookupHopsSig:mean 	30.533333333333
scalar Network.dyn_peer[186] 	lookupTimeSig:mean 	2.2166666666667
scalar Network.dyn_peer[186] 	lookupStabilitySig:mean 	0.96566108521074
scalar Network.dyn_peer[186] 	lookupHopsSig:mean 	21.208333333333
scalar Network.dyn_peer[187] 	lookupTimeSig:mean 	2.95
scalar Network.dyn_peer[187] 	lookupStabilitySig:mean 	0.97271621397654
scalar Network.dyn_peer[187] 	lookupHopsSig:mean 	28.545454545455
scalar Network.dyn_peer[188] 	lookupTimeSig:mean 	2.5823529411765
scalar Network.dyn_peer[188] 	lookupStabilitySig:mean 	0.95749022418578
scalar Network.dyn_peer[188] 	lookupHopsSig:mean 	24.882352941176
scalar Network.dyn_peer[189] 	lookupTimeSig:mean 	1.9076923076923
scalar Network.dyn_peer[189] 	lookupStabilitySig:mean 	0.94918209987764
scalar Network.dyn_peer[189] 	lookupHopsSig:mean 	18.153846153846
scalar Network.dyn_peer[190] 	lookupTimeSig:mean 	2.4136363636364
scalar Network.dyn_peer[190] 	lookupStabilitySig:mean 	0.96160236506892
scalar Network.dyn_peer[190] 	lookupHopsSig:mean 	23.181818181818
scalar Network.dyn_peer[191] 	lookupTimeSig:mean 	3.4
scalar Network.dyn_peer[191] 	lookupStabilitySig:mean 	0.96309616726725
scalar Network.dyn_peer[191] 	lookupHopsSig:mean 	33.052631578947
scalar Network.dyn_peer[192] 	lookupTimeSig:mean 	5.0888888888889
scalar Network.dyn_peer[192] 	lookupStabilitySig:mean 	0.95532707463846
scalar Network.dyn_peer[192] 	lookupHopsSig:mean 	49.944444444444
scalar Network.dyn_peer[193] 	lookupTimeSig:mean 	4.1952380952381
scalar Network.dyn_peer[193] 	lookupStabilitySig:mean 	0.97041306724506
scalar Network.dyn_peer[193] 	lookupHopsSig:mean 	41
scalar Network.dyn_peer[194] 	lookupTimeSig:mean 	3.316
scalar Network.dyn_peer[194] 	lookupStabilitySig:mean 	0.97100938734598
scalar Network.dyn_peer[194] 	lookupHopsSig:mean 	32.2
scalar Network.dyn_peer[195] 	lookupTimeSig:mean 	3.1782608695652
scalar Network.dyn_peer[195] 	lookupStabilitySig:mean 	0.97196800225546
scalar Network.dyn_peer[195] 	lookupHopsSig:mean 	30.826086956522
scalar Network.dyn_peer[196] 	lookupTimeSig:mean 	4.3142857142857
scalar Network.dyn_peer[196] 	lookupStabilitySig:mean 	0.95824866234103
scalar Network.dyn_peer[196] 	lookupHopsSig:mean 	42.190476190476
scalar Network.dyn_peer[197] 	lookupTimeSig:mean 	3.1681818181818
scalar Network.dyn_peer[197] 	lookupStabilitySig:mean 	0.96356220346537
scalar Network.dyn_peer[197] 	lookupHopsSig:mean 	30.727272727273
scalar Network.dyn_peer[198] 	lookupTimeSig:mean 	2.6928571428571
scalar Network.dyn_peer[198] 	lookupStabilitySig:mean 	0.96700105040301
scalar Network.dyn_peer[198] 	lookupHopsSig:mean 	25.964285714286
scalar Network.dyn_peer[199] 	lookupTimeSig:mean 	2.7238095238095
scalar Network.dyn_peer[199] 	lookupStabilitySig:mean 	0.96652274572157
scalar Network.dyn_peer[199] 	lookupHopsSig:mean 	26.285714285714
scalar Network.dyn_peer[200] 	lookupTimeSig:mean 	2.9714285714286
scalar Network.dyn_peer[200] 	lookupStabilitySig:mean 	0.9657038095008
scalar Network.dyn_peer[200] 	lookupHopsSig:mean 	28.785714285714
scalar Network.dyn_peer[201] 	lookupTimeSig:mean 	3.78
scalar Network.dyn_peer[201] 	lookupStabilitySig:mean 	0.96132636015536
scalar Network.dyn_peer[201] 	lookupHopsSig:mean 	36.85
scalar Network.dyn_peer[202] 	lookupTimeSig:mean 	2.1466666666667
scalar Network.dyn_peer[202] 	lookupStabilitySig:mean 	0.96492182858055
scalar Network.dyn_peer[202] 	lookupHopsSig:mean 	20.533333333333
scalar Network.dyn_peer[203] 	lookupTimeSig:mean 	3.1846153846154
scalar Network.dyn_peer[203] 	lookupStabilitySig:mean 	0.95018056177874
scalar Network.dyn_peer[203] 	lookupHopsSig:mean 	30.923076923077
scalar Network.dyn_peer[204] 	lookupTimeSig:mean 	3.5590909090909
scalar Network.dyn_peer[204] 	lookupStabilitySig:mean 	0.96748961525736
scalar Network.dyn_peer[204] 	lookupHopsSig:mean 	34.636363636364
scalar Network.dyn_peer[205] 	lookupTimeSig:mean 	3.8318181818182
scalar Network.dyn_peer[205] 	lookupStabilitySig:mean 	0.9666677441829
scalar Network.dyn_peer[205] 	lookupHopsSig:mean 	37.363636363636
scalar Network.dyn_peer[206] 	lookupTimeSig:mean 	2.6105263157895
scalar Network.dyn_peer[206] 	lookupStabilitySig:mean 	0.96207220310737
scalar Network.dyn_peer[206] 	lookupHopsSig:mean 	25.157894736842
scalar Network.dyn_peer[207] 	lookupTimeSig:mean 	3.295652173913
scalar Network.dyn_peer[207] 	lookupStabilitySig:mean 	0.96250776480883
scalar Network.dyn_peer[207] 	lookupHopsSig:mean 	32
scalar Network.dyn_peer[208] 	lookupTimeSig:mean 	3.7857142857143
scalar Network.dyn_peer[208] 	lookupStabilitySig:mean 	0.96178443146692
scalar Network.dyn_peer[208] 	lookupHopsSig:mean 	36.904761904762
scalar Network.dyn_peer[209] 	lookupTimeSig:mean 	3.40625
scalar Network.dyn_peer[209] 	lookupStabilitySig:mean 	0.9536042597465
scalar Network.dyn_peer[209] 	lookupHopsSig:mean 	33.125
scalar Network.dyn_peer[210] 	lookupTimeSig:mean 	2.9818181818182
scalar Network.dyn_peer[210] 	lookupStabilitySig:mean 	0.97012577111706
scalar Network.dyn_peer[210] 	lookupHopsSig:mean 	28.863636363636
scalar Network.dyn_peer[211] 	lookupTimeSig:mean 	3.23
scalar Network.dyn_peer[211] 	lookupStabilitySig:mean 	0.95519244661555
scalar Network.dyn_peer[211] 	lookupHopsSig:mean 	31.4
scalar Network.dyn_peer[212] 	lookupTimeSig:mean 	4.036
scalar Network.dyn_peer[212] 	lookupStabilitySig:mean 	0.96419807198457
scalar Network.dyn_peer[212] 	lookupHopsSig:mean 	39.4
scalar Network.dyn_peer[213] 	lookupTimeSig:mean 	3.6047619047619
scalar Network.dyn_peer[213] 	lookupStabilitySig:mean 	0.96145989286846
scalar Network.dyn_peer[213] 	lookupHopsSig:mean 	35.095238095238
scalar Network.dyn_peer[214] 	lookupTimeSig:mean 	2.7333333333333
scalar Network.dyn_peer[214] 	lookupStabilitySig:mean 	0.95878658823979
scalar Network.dyn_peer[214] 	lookupHopsSig:mean 	26.388888888889
scalar Network.dyn_peer[215] 	lookupTimeSig:mean 	2.845
scalar Network.dyn_peer[215] 	lookupStabilitySig:mean 	0.96398598513333
scalar Network.dyn_peer[215] 	lookupHopsSig:mean 	27.5
scalar Network.dyn_peer[216] 	lookupTimeSig:mean 	3.01
scalar Network.dyn_peer[216] 	lookupStabilitySig:mean 	0.95195108088665
scalar Network.dyn_peer[216] 	lookupHopsSig:mean 	29.2
scalar Network.dyn_peer[217] 	lookupTimeSig:mean 	3.6142857142857
scalar Network.dyn_peer[217] 	lookupStabilitySig:mean 	0.96184154102091
scalar Network.dyn_peer[217] 	lookupHopsSig:mean 	35.190476190476
scalar Network.dyn_peer[218] 	lookupTimeSig:mean 	2.7714285714286
scalar Network.dyn_peer[218] 	lookupStabilitySig:mean 	0.97535447072836
scalar Network.dyn_peer[218] 	lookupHopsSig:mean 	26.75
scalar Network.dyn_peer[219] 	lookupTimeSig:mean 	2.5666666666667
scalar Network.dyn_peer[219] 	lookupStabilitySig:mean 	0.95682144234888
scalar Network.dyn_peer[219] 	lookupHopsSig:mean 	24.75
scalar Network.dyn_peer[220] 	lookupTimeSig:mean 	2.4166666666667
scalar Network.dyn_peer[220] 	lookupStabilitySig:mean 	0.95644088544779
scalar Network.dyn_peer[220] 	lookupHopsSig:mean 	23.222222222222
scalar Network.dyn_peer[221] 	lookupTimeSig:mean 	3.2578947368421
scalar Network.dyn_peer[221] 	lookupStabilitySig:mean 	0.96904302544059
scalar Network.dyn_peer[221] 	lookupHopsSig:mean 	31.631578947368
scalar Network.dyn_peer[222] 	lookupTimeSig:mean 	3.5611111111111
scalar Network.dyn_peer[222] 	lookupStabilitySig:mean 	0.97004922451581
scalar Network.dyn_peer[222] 	lookupHopsSig:mean 	34.666666666667
scalar Network.dyn_peer[223] 	lookupTimeSig:mean 	4.004347826087
scalar Network.dyn_peer[223] 	lookupStabilitySig:mean 	0.96438913991796
scalar Network.dyn_peer[223] 	lookupHopsSig:mean 	39.086956521739
scalar Network.dyn_peer[224] 	lookupTimeSig:mean 	3.8055555555556
scalar Network.dyn_peer[224] 	lookupStabilitySig:mean 	0.95503521821876
scalar Network.dyn_peer[224] 	lookupHopsSig:mean 	37.111111111111
scalar Network.dyn_peer[225] 	lookupTimeSig:mean 	1.7526315789474
scalar Network.dyn_peer[225] 	lookupStabilitySig:mean 	0.96054404670998
scalar Network.dyn_peer[225] 	lookupHopsSig:mean 	16.578947368421
scalar Network.dyn_peer[226] 	lookupTimeSig:mean 	3.704
scalar Network.dyn_peer[226] 	lookupStabilitySig:mean 	0.96930754736997
scalar Network.dyn_peer[226] 	lookupHopsSig:mean 	36.08
scalar Network.dyn_peer[227] 	lookupTimeSig:mean 	3.7758620689655
scalar Network.dyn_peer[227] 	lookupStabilitySig:mean 	0.9698028214605
scalar Network.dyn_peer[227] 	lookupHopsSig:mean 	36.793103448276
scalar Network.dyn_peer[228] 	lookupTimeSig:mean 	3.6964285714286
scalar Network.dyn_peer[228] 	lookupStabilitySig:mean 	0.97178719581072
scalar Network.dyn_peer[228] 	lookupHopsSig:mean 	36
scalar Network.dyn_peer[229] 	lookupTimeSig:mean 	4.7423076923077
scalar Network.dyn_peer[229] 	lookupStabilitySig:mean 	0.96940226077389
scalar Network.dyn_peer[229] 	lookupHopsSig:mean 	46.461538461538
scalar Network.dyn_peer[230] 	lookupTimeSig:mean 	3.8705882352941
scalar Network.dyn_peer[230] 	lookupStabilitySig:mean 	0.96241982535952
scalar Network.dyn_peer[230] 	lookupHopsSig:mean 	37.764705882353
scalar Network.dyn_peer[231] 	lookupTimeSig:mean 	1.4583333333333
scalar Network.dyn_peer[231] 	lookupStabilitySig:mean 	0.95461378776236
scalar Network.dyn_peer[231] 	lookupHopsSig:mean 	13.666666666667
scalar Network.dyn_peer[232] 	lookupTimeSig:mean 	2.675
scalar Network.dyn_peer[232] 	lookupStabilitySig:mean 	0.95163263562912
scalar Network.dyn_peer[232] 	lookupHopsSig:mean 	25.833333333333
scalar Network.dyn_peer[233] 	lookupTimeSig:mean 	2.9764705882353
scalar Network.dyn_peer[233] 	lookupStabilitySig:mean 	0.96459090801449
scalar Network.dyn_peer[233] 	lookupHopsSig:mean 	28.823529411765
scalar Network.dyn_peer[234] 	lookupTimeSig:mean 	2.6347826086957
scalar Network.dyn_peer[234] 	lookupStabilitySig:mean 	0.96704625450682
scalar Network.dyn_peer[234] 	lookupHopsSig:mean 	25.391304347826
scalar Network.dyn_peer[235] 	lookupTimeSig:mean 	3.12
scalar Network.dyn_peer[235] 	lookupStabilitySig:mean 	0.97464864009642
scalar Network.dyn_peer[235] 	lookupHopsSig:mean 	30.24
scalar Network.dyn_peer[236] 	lookupTimeSig:mean 	3.4103448275862
scalar Network.dyn_peer[236] 	lookupStabilitySig:mean 	0.97607213727215
scalar Network.dyn_peer[236] 	lookupHopsSig:mean 	33.137931034483
scalar Network.dyn_peer[237] 	lookupTimeSig:mean 	4.1714285714286
scalar Network.dyn_peer[237] 	lookupStabilitySig:mean 	0.96677422170926
scalar Network.dyn_peer[237] 	lookupHopsSig:mean 	40.761904761905
scalar Network.dyn_peer[238] 	lookupTimeSig:mean 	1.9052631578947
scalar Network.dyn_peer[238] 	lookupStabilitySig:mean 	0.96340324793403
scalar Network.dyn_peer[238] 	lookupHopsSig:mean 	18.105263157895
scalar Network.dyn_peer[239] 	lookupTimeSig:mean 	2.9260869565217
scalar Network.dyn_peer[239] 	lookupStabilitySig:mean 	0.96472837092638
scalar Network.dyn_peer[239] 	lookupHopsSig:mean 	28.304347826087
scalar Network.dyn_peer[240] 	lookupTimeSig:mean 	2.8
scalar Network.dyn_peer[240] 	lookupStabilitySig:mean 	0.96624646870125
scalar Network.dyn_peer[240] 	lookupHopsSig:mean 	27.052631578947
scalar Network.dyn_peer[241] 	lookupTimeSig:mean 	3.1173913043478
scalar Network.dyn_peer[241] 	lookupStabilitySig:mean 	0.97499089496737
scalar Network.dyn_peer[241] 	lookupHopsSig:mean 	30.217391304348
scalar Network.dyn_peer[242] 	lookupTimeSig:mean 	2.8
scalar Network.dyn_peer[242] 	lookupStabilitySig:mean 	0.95537206149575
scalar Network.dyn_peer[242] 	lookupHopsSig:mean 	27.090909090909
scalar Network.dyn_peer[243] 	lookupTimeSig:mean 	3.9153846153846
scalar Network.dyn_peer[243] 	lookupStabilitySig:mean 	0.97047812645682
scalar Network.dyn_peer[243] 	lookupHopsSig:mean 	38.192307692308
scalar Network.dyn_peer[244] 	lookupTimeSig:mean 	2.975
scalar Network.dyn_peer[244] 	lookupStabilitySig:mean 	0.94654862272243
scalar Network.dyn_peer[244] 	lookupHopsSig:mean 	28.833333333333
scalar Network.dyn_peer[245] 	lookupTimeSig:mean 	3.2384615384615
scalar Network.dyn_peer[245] 	lookupStabilitySig:mean 	0.96959640635983
scalar Network.dyn_peer[245] 	lookupHopsSig:mean 	31.423076923077
scalar Network.dyn_peer[246] 	lookupTimeSig:mean 	2.7947368421053
scalar Network.dyn_peer[246] 	lookupStabilitySig:mean 	0.96138347986791
scalar Network.dyn_peer[246] 	lookupHopsSig:mean 	27
scalar Network.dyn_peer[247] 	lookupTimeSig:mean 	3.0764705882353
scalar Network.dyn_peer[247] 	lookupStabilitySig:mean 	0.9571456690045
scalar Network.dyn_peer[247] 	lookupHopsSig:mean 	29.823529411765
scalar Network.dyn_peer[248] 	lookupTimeSig:mean 	3.4
scalar Network.dyn_peer[248] 	lookupStabilitySig:mean 	0.97046951513255
scalar Network.dyn_peer[248] 	lookupHopsSig:mean 	33.037037037037
scalar Network.dyn_peer[249] 	lookupTimeSig:mean 	3.0607142857143
scalar Network.dyn_peer[249] 	lookupStabilitySig:mean 	0.97310380785659
scalar Network.dyn_peer[249] 	lookupHopsSig:mean 	29.642857142857
scalar Network.dyn_peer[250] 	lookupTimeSig:mean 	2.2384615384615
scalar Network.dyn_peer[250] 	lookupStabilitySig:mean 	0.95544082492303
scalar Network.dyn_peer[250] 	lookupHopsSig:mean 	21.461538461538
scalar Network.dyn_peer[251] 	lookupTimeSig:mean 	2.8470588235294
scalar Network.dyn_peer[251] 	lookupStabilitySig:mean 	0.96201612216914
scalar Network.dyn_peer[251] 	lookupHopsSig:mean 	27.529411764706
scalar Network.dyn_peer[252] 	lookupTimeSig:mean 	4.7666666666667
scalar Network.dyn_peer[252] 	lookupStabilitySig:mean 	0.96414247230213
scalar Network.dyn_peer[252] 	lookupHopsSig:mean 	46.722222222222
scalar Network.dyn_peer[253] 	lookupTimeSig:mean 	3.37
scalar Network.dyn_peer[253] 	lookupStabilitySig:mean 	0.96664349946077
scalar Network.dyn_peer[253] 	lookupHopsSig:mean 	32.75
scalar Network.dyn_peer[254] 	lookupTimeSig:mean 	2.825
scalar Network.dyn_peer[254] 	lookupStabilitySig:mean 	0.95853744464694
scalar Network.dyn_peer[254] 	lookupHopsSig:mean 	27.3125
scalar Network.dyn_peer[255] 	lookupTimeSig:mean 	2.78
scalar Network.dyn_peer[255] 	lookupStabilitySig:mean 	0.95609781996657
scalar Network.dyn_peer[255] 	lookupHopsSig:mean 	26.866666666667
scalar Network.dyn_peer[256] 	lookupTimeSig:mean 	3.9705882352941
scalar Network.dyn_peer[256] 	lookupStabilitySig:mean 	0.96093274606392
scalar Network.dyn_peer[256] 	lookupHopsSig:mean 	38.764705882353
scalar Network.dyn_peer[257] 	lookupTimeSig:mean 	2.4037037037037
scalar Network.dyn_peer[257] 	lookupStabilitySig:mean 	0.97432084270555
scalar Network.dyn_peer[257] 	lookupHopsSig:mean 	23.074074074074
scalar Network.dyn_peer[258] 	lookupTimeSig:mean 	3.8652173913043
scalar Network.dyn_peer[258] 	lookupStabilitySig:mean 	0.96901592515085
scalar Network.dyn_peer[258] 	lookupHopsSig:mean 	37.695652173913
scalar Network.dyn_peer[259] 	lookupTimeSig:mean 	2.7133333333333
scalar Network.dyn_peer[259] 	lookupStabilitySig:mean 	0.97018014636512
scalar Network.dyn_peer[259] 	lookupHopsSig:mean 	26.2
scalar Network.dyn_peer[260] 	lookupTimeSig:mean 	3.7
scalar Network.dyn_peer[260] 	lookupStabilitySig:mean 	0.96279094476575
scalar Network.dyn_peer[260] 	lookupHopsSig:mean 	36.076923076923
scalar Network.dyn_peer[261] 	lookupTimeSig:mean 	2.4941176470588
scalar Network.dyn_peer[261] 	lookupStabilitySig:mean 	0.97415244064349
scalar Network.dyn_peer[261] 	lookupHopsSig:mean 	24
scalar Network.dyn_peer[262] 	lookupTimeSig:mean 	3.708
scalar Network.dyn_peer[262] 	lookupStabilitySig:mean 	0.97255431578029
scalar Network.dyn_peer[262] 	lookupHopsSig:mean 	36.12
scalar Network.dyn_peer[263] 	lookupTimeSig:mean 	2.88
scalar Network.dyn_peer[263] 	lookupStabilitySig:mean 	0.96995922143105
scalar Network.dyn_peer[263] 	lookupHopsSig:mean 	27.85
scalar Network.dyn_peer[264] 	lookupTimeSig:mean 	3.6125
scalar Network.dyn_peer[264] 	lookupStabilitySig:mean 	0.97025192384899
scalar Network.dyn_peer[264] 	lookupHopsSig:mean 	35.1875
scalar Network.dyn_peer[265] 	lookupTimeSig:mean 	4.0944444444444
scalar Network.dyn_peer[265] 	lookupStabilitySig:mean 	0.96806467060621
scalar Network.dyn_peer[265] 	lookupHopsSig:mean 	40
scalar Network.dyn_peer[266] 	lookupTimeSig:mean 	3.5173913043478
scalar Network.dyn_peer[266] 	lookupStabilitySig:mean 	0.96897961075782
scalar Network.dyn_peer[266] 	lookupHopsSig:mean 	34.217391304348
scalar Network.dyn_peer[267] 	lookupTimeSig:mean 	3.3846153846154
scalar Network.dyn_peer[267] 	lookupStabilitySig:mean 	0.96322315703415
scalar Network.dyn_peer[267] 	lookupHopsSig:mean 	32.923076923077
scalar Network.dyn_peer[268] 	lookupTimeSig:mean 	2.3692307692308
scalar Network.dyn_peer[268] 	lookupStabilitySig:mean 	0.94685147921197
scalar Network.dyn_peer[268] 	lookupHopsSig:mean 	22.769230769231
scalar Network.dyn_peer[269] 	lookupTimeSig:mean 	3.4045454545455
scalar Network.dyn_peer[269] 	lookupStabilitySig:mean 	0.96745828096755
scalar Network.dyn_peer[269] 	lookupHopsSig:mean 	33.090909090909
scalar Network.dyn_peer[270] 	lookupTimeSig:mean 	3.5538461538462
scalar Network.dyn_peer[270] 	lookupStabilitySig:mean 	0.94994180226842
scalar Network.dyn_peer[270] 	lookupHopsSig:mean 	34.615384615385
scalar Network.dyn_peer[271] 	lookupTimeSig:mean 	3.4363636363636
scalar Network.dyn_peer[271] 	lookupStabilitySig:mean 	0.95962207154794
scalar Network.dyn_peer[271] 	lookupHopsSig:mean 	33.454545454545
scalar Network.dyn_peer[272] 	lookupTimeSig:mean 	3.6473684210526
scalar Network.dyn_peer[272] 	lookupStabilitySig:mean 	0.97118112312532
scalar Network.dyn_peer[272] 	lookupHopsSig:mean 	35.526315789474
scalar Network.dyn_peer[273] 	lookupTimeSig:mean 	3.3166666666667
scalar Network.dyn_peer[273] 	lookupStabilitySig:mean 	0.95329851441784
scalar Network.dyn_peer[273] 	lookupHopsSig:mean 	32.25
scalar Network.dyn_peer[274] 	lookupTimeSig:mean 	3.7407407407407
scalar Network.dyn_peer[274] 	lookupStabilitySig:mean 	0.97381405651362
scalar Network.dyn_peer[274] 	lookupHopsSig:mean 	36.444444444444
scalar Network.dyn_peer[275] 	lookupTimeSig:mean 	3
scalar Network.dyn_peer[275] 	lookupStabilitySig:mean 	0.97441841722632
scalar Network.dyn_peer[275] 	lookupHopsSig:mean 	29.071428571429
scalar Network.dyn_peer[276] 	lookupTimeSig:mean 	2.6615384615385
scalar Network.dyn_peer[276] 	lookupStabilitySig:mean 	0.95977693921528
scalar Network.dyn_peer[276] 	lookupHopsSig:mean 	25.692307692308
scalar Network.dyn_peer[277] 	lookupTimeSig:mean 	2.412
scalar Network.dyn_peer[277] 	lookupStabilitySig:mean 	0.9805723424186
scalar Network.dyn_peer[277] 	lookupHopsSig:mean 	23.16
scalar Network.dyn_peer[278] 	lookupTimeSig:mean 	2.7947368421053
scalar Network.dyn_peer[278] 	lookupStabilitySig:mean 	0.96373810367904
scalar Network.dyn_peer[278] 	lookupHopsSig:mean 	27
scalar Network.dyn_peer[279] 	lookupTimeSig:mean 	3.5421052631579
scalar Network.dyn_peer[279] 	lookupStabilitySig:mean 	0.96300643976582
scalar Network.dyn_peer[279] 	lookupHopsSig:mean 	34.473684210526
scalar Network.dyn_peer[280] 	lookupTimeSig:mean 	4.4157894736842
scalar Network.dyn_peer[280] 	lookupStabilitySig:mean 	0.97361084539443
scalar Network.dyn_peer[280] 	lookupHopsSig:mean 	43.210526315789
scalar Network.dyn_peer[281] 	lookupTimeSig:mean 	2.94
scalar Network.dyn_peer[281] 	lookupStabilitySig:mean 	0.97220008896664
scalar Network.dyn_peer[281] 	lookupHopsSig:mean 	28.44
scalar Network.dyn_peer[282] 	lookupTimeSig:mean 	4.1071428571429
scalar Network.dyn_peer[282] 	lookupStabilitySig:mean 	0.95366584991903
scalar Network.dyn_peer[282] 	lookupHopsSig:mean 	40.142857142857
scalar Network.dyn_peer[283] 	lookupTimeSig:mean 	3.68
scalar Network.dyn_peer[283] 	lookupStabilitySig:mean 	0.97224051076919
scalar Network.dyn_peer[283] 	lookupHopsSig:mean 	35.84
scalar Network.dyn_peer[284] 	lookupTimeSig:mean 	3.1041666666667
scalar Network.dyn_peer[284] 	lookupStabilitySig:mean 	0.98044621871001
scalar Network.dyn_peer[284] 	lookupHopsSig:mean 	30.083333333333
scalar Network.dyn_peer[285] 	lookupTimeSig:mean 	1.2
scalar Network.dyn_peer[285] 	lookupStabilitySig:mean 	0.96995422311334
scalar Network.dyn_peer[285] 	lookupHopsSig:mean 	11.055555555556
scalar Network.dyn_peer[286] 	lookupTimeSig:mean 	2.608
scalar Network.dyn_peer[286] 	lookupStabilitySig:mean 	0.97471920679789
scalar Network.dyn_peer[286] 	lookupHopsSig:mean 	25.12
scalar Network.dyn_peer[287] 	lookupTimeSig:mean 	4.1954545454545
scalar Network.dyn_peer[287] 	lookupStabilitySig:mean 	0.96501859878613
scalar Network.dyn_peer[287] 	lookupHopsSig:mean 	41
scalar Network.dyn_peer[288] 	lookupTimeSig:mean 	3.2652173913043
scalar Network.dyn_peer[288] 	lookupStabilitySig:mean 	0.97379527324507
scalar Network.dyn_peer[288] 	lookupHopsSig:mean 	31.695652173913
scalar Network.dyn_peer[289] 	lookupTimeSig:mean 	2.9631578947368
scalar Network.dyn_peer[289] 	lookupStabilitySig:mean 	0.96507116488647
scalar Network.dyn_peer[289] 	lookupHopsSig:mean 	28.684210526316
scalar Network.dyn_peer[290] 	lookupTimeSig:mean 	3.675
scalar Network.dyn_peer[290] 	lookupStabilitySig:mean 	0.96484906601836
scalar Network.dyn_peer[290] 	lookupHopsSig:mean 	35.8125
scalar Network.dyn_peer[291] 	lookupTimeSig:mean 	2.9722222222222
scalar Network.dyn_peer[291] 	lookupStabilitySig:mean 	0.96843835763219
scalar Network.dyn_peer[291] 	lookupHopsSig:mean 	28.777777777778
scalar Network.dyn_peer[292] 	lookupTimeSig:mean 	2.8363636363636
scalar Network.dyn_peer[292] 	lookupStabilitySig:mean 	0.97735630082157
scalar Network.dyn_peer[292] 	lookupHopsSig:mean 	27.409090909091
scalar Network.dyn_peer[293] 	lookupTimeSig:mean 	3.0954545454545
scalar Network.dyn_peer[293] 	lookupStabilitySig:mean 	0.97906703888227
scalar Network.dyn_peer[293] 	lookupHopsSig:mean 	30
scalar Network.dyn_peer[294] 	lookupTimeSig:mean 	3.3625
scalar Network.dyn_peer[294] 	lookupStabilitySig:mean 	0.92974391911412
scalar Network.dyn_peer[294] 	lookupHopsSig:mean 	32.75
scalar Network.dyn_peer[295] 	lookupTimeSig:mean 	3.2583333333333
scalar Network.dyn_peer[295] 	lookupStabilitySig:mean 	0.96821984794224
scalar Network.dyn_peer[295] 	lookupHopsSig:mean 	31.625
scalar Network.dyn_peer[296] 	lookupTimeSig:mean 	3.9272727272727
scalar Network.dyn_peer[296] 	lookupStabilitySig:mean 	0.96350195072591
scalar Network.dyn_peer[296] 	lookupHopsSig:mean 	38.363636363636
scalar Network.dyn_peer[297] 	lookupTimeSig:mean 	4.08
scalar Network.dyn_peer[297] 	lookupStabilitySig:mean 	0.9685531471041
scalar Network.dyn_peer[297] 	lookupHopsSig:mean 	39.85
scalar Network.dyn_peer[298] 	lookupTimeSig:mean 	3.2227272727273
scalar Network.dyn_peer[298] 	lookupStabilitySig:mean 	0.97633499926252
scalar Network.dyn_peer[298] 	lookupHopsSig:mean 	31.272727272727
scalar Network.dyn_peer[299] 	lookupTimeSig:mean 	3.5055555555556
scalar Network.dyn_peer[299] 	lookupStabilitySig:mean 	0.9685800455433
scalar Network.dyn_peer[299] 	lookupHopsSig:mean 	34.111111111111
scalar Network.dyn_peer[300] 	lookupTimeSig:mean 	2.7904761904762
scalar Network.dyn_peer[300] 	lookupStabilitySig:mean 	0.96641154563986
scalar Network.dyn_peer[300] 	lookupHopsSig:mean 	26.952380952381
scalar Network.dyn_peer[301] 	lookupTimeSig:mean 	3.1222222222222
scalar Network.dyn_peer[301] 	lookupStabilitySig:mean 	0.95369224415885
scalar Network.dyn_peer[301] 	lookupHopsSig:mean 	30.333333333333
scalar Network.dyn_peer[302] 	lookupTimeSig:mean 	4.4642857142857
scalar Network.dyn_peer[302] 	lookupStabilitySig:mean 	0.96855075547605
scalar Network.dyn_peer[302] 	lookupHopsSig:mean 	43.714285714286
scalar Network.dyn_peer[303] 	lookupTimeSig:mean 	2.2666666666667
scalar Network.dyn_peer[303] 	lookupStabilitySig:mean 	0.96897089624157
scalar Network.dyn_peer[303] 	lookupHopsSig:mean 	21.733333333333
scalar Network.dyn_peer[304] 	lookupTimeSig:mean 	3.775
scalar Network.dyn_peer[304] 	lookupStabilitySig:mean 	0.96851592510939
scalar Network.dyn_peer[304] 	lookupHopsSig:mean 	36.8
scalar Network.dyn_peer[305] 	lookupTimeSig:mean 	4.3214285714286
scalar Network.dyn_peer[305] 	lookupStabilitySig:mean 	0.95390970063662
scalar Network.dyn_peer[305] 	lookupHopsSig:mean 	42.285714285714
scalar Network.dyn_peer[306] 	lookupTimeSig:mean 	3.803125
scalar Network.dyn_peer[306] 	lookupStabilitySig:mean 	0.97522500050036
scalar Network.dyn_peer[306] 	lookupHopsSig:mean 	37.0625
scalar Network.dyn_peer[307] 	lookupTimeSig:mean 	3.15
scalar Network.dyn_peer[307] 	lookupStabilitySig:mean 	0.95754374818145
scalar Network.dyn_peer[307] 	lookupHopsSig:mean 	30.571428571429
scalar Network.dyn_peer[308] 	lookupTimeSig:mean 	3.5055555555556
scalar Network.dyn_peer[308] 	lookupStabilitySig:mean 	0.96630103392009
scalar Network.dyn_peer[308] 	lookupHopsSig:mean 	34.111111111111
scalar Network.dyn_peer[309] 	lookupTimeSig:mean 	4.4266666666667
scalar Network.dyn_peer[309] 	lookupStabilitySig:mean 	0.95775137705108
scalar Network.dyn_peer[309] 	lookupHopsSig:mean 	43.333333333333
scalar Network.dyn_peer[310] 	lookupTimeSig:mean 	2.6692307692308
scalar Network.dyn_peer[310] 	lookupStabilitySig:mean 	0.96175966581974
scalar Network.dyn_peer[310] 	lookupHopsSig:mean 	25.769230769231
scalar Network.dyn_peer[311] 	lookupTimeSig:mean 	3.075
scalar Network.dyn_peer[311] 	lookupStabilitySig:mean 	0.96031426387344
scalar Network.dyn_peer[311] 	lookupHopsSig:mean 	29.8125
scalar Network.dyn_peer[312] 	lookupTimeSig:mean 	2.5090909090909
scalar Network.dyn_peer[312] 	lookupStabilitySig:mean 	0.94994633958082
scalar Network.dyn_peer[312] 	lookupHopsSig:mean 	24.181818181818
scalar Network.dyn_peer[313] 	lookupTimeSig:mean 	3.1277777777778
scalar Network.dyn_peer[313] 	lookupStabilitySig:mean 	0.96024036761891
scalar Network.dyn_peer[313] 	lookupHopsSig:mean 	30.333333333333
scalar Network.dyn_peer[314] 	lookupTimeSig:mean 	4.2857142857143
scalar Network.dyn_peer[314] 	lookupStabilitySig:mean 	0.97262143819327
scalar Network.dyn_peer[314] 	lookupHopsSig:mean 	41.928571428571
scalar Network.dyn_peer[315] 	lookupTimeSig:mean 	2.3941176470588
scalar Network.dyn_peer[315] 	lookupStabilitySig:mean 	0.9653514485998
scalar Network.dyn_peer[315] 	lookupHopsSig:mean 	23
scalar Network.dyn_peer[316] 	lookupTimeSig:mean 	2.7904761904762
scalar Network.dyn_peer[316] 	lookupStabilitySig:mean 	0.97935312710858
scalar Network.dyn_peer[316] 	lookupHopsSig:mean 	26.952380952381
scalar Network.dyn_peer[317] 	lookupTimeSig:mean 	3.5947368421053
scalar Network.dyn_peer[317] 	lookupStabilitySig:mean 	0.96665084768871
scalar Network.dyn_peer[317] 	lookupHopsSig:mean 	35
scalar Network.dyn_peer[318] 	lookupTimeSig:mean 	3.252380952381
scalar Network.dyn_peer[318] 	lookupStabilitySig:mean 	0.9698659489153
scalar Network.dyn_peer[318] 	lookupHopsSig:mean 	31.571428571429
scalar Network.dyn_peer[319] 	lookupTimeSig:mean 	3.3090909090909
scalar Network.dyn_peer[319] 	lookupStabilitySig:mean 	0.97641012701911
scalar Network.dyn_peer[319] 	lookupHopsSig:mean 	32.121212121212
scalar Network.dyn_peer[320] 	lookupTimeSig:mean 	3.9678571428571
scalar Network.dyn_peer[320] 	lookupStabilitySig:mean 	0.97582546990764
scalar Network.dyn_peer[320] 	lookupHopsSig:mean 	38.714285714286
scalar Network.dyn_peer[321] 	lookupTimeSig:mean 	4.025
scalar Network.dyn_peer[321] 	lookupStabilitySig:mean 	0.96554726945033
scalar Network.dyn_peer[321] 	lookupHopsSig:mean 	39.3125
scalar Network.dyn_peer[322] 	lookupTimeSig:mean 	4.6210526315789
scalar Network.dyn_peer[322] 	lookupStabilitySig:mean 	0.96741618304268
scalar Network.dyn_peer[322] 	lookupHopsSig:mean 	45.263157894737
scalar Network.dyn_peer[323] 	lookupTimeSig:mean 	3.45
scalar Network.dyn_peer[323] 	lookupStabilitySig:mean 	0.96790821928153
scalar Network.dyn_peer[323] 	lookupHopsSig:mean 	33.5625
scalar Network.dyn_peer[324] 	lookupTimeSig:mean 	2.6181818181818
scalar Network.dyn_peer[324] 	lookupStabilitySig:mean 	0.97270676453429
scalar Network.dyn_peer[324] 	lookupHopsSig:mean 	25.227272727273
scalar Network.dyn_peer[325] 	lookupTimeSig:mean 	2.6521739130435
scalar Network.dyn_peer[325] 	lookupStabilitySig:mean 	0.97180327118131
scalar Network.dyn_peer[325] 	lookupHopsSig:mean 	25.565217391304
scalar Network.dyn_peer[326] 	lookupTimeSig:mean 	3.36
scalar Network.dyn_peer[326] 	lookupStabilitySig:mean 	0.96806384376541
scalar Network.dyn_peer[326] 	lookupHopsSig:mean 	32.65
scalar Network.dyn_peer[327] 	lookupTimeSig:mean 	2.49
scalar Network.dyn_peer[327] 	lookupStabilitySig:mean 	0.95130490558222
scalar Network.dyn_peer[327] 	lookupHopsSig:mean 	24
scalar Network.dyn_peer[328] 	lookupTimeSig:mean 	2.9272727272727
scalar Network.dyn_peer[328] 	lookupStabilitySig:mean 	0.94551191614433
scalar Network.dyn_peer[328] 	lookupHopsSig:mean 	28.363636363636
scalar Network.dyn_peer[329] 	lookupTimeSig:mean 	2.715
scalar Network.dyn_peer[329] 	lookupStabilitySig:mean 	0.97291194912395
scalar Network.dyn_peer[329] 	lookupHopsSig:mean 	26.2
scalar Network.dyn_peer[330] 	lookupTimeSig:mean 	2.85
scalar Network.dyn_peer[330] 	lookupStabilitySig:mean 	0.96347651287862
scalar Network.dyn_peer[330] 	lookupHopsSig:mean 	27.555555555556
scalar Network.dyn_peer[331] 	lookupTimeSig:mean 	3.304
scalar Network.dyn_peer[331] 	lookupStabilitySig:mean 	0.97294135791715
scalar Network.dyn_peer[331] 	lookupHopsSig:mean 	32.08
scalar Network.dyn_peer[332] 	lookupTimeSig:mean 	4.75
scalar Network.dyn_peer[332] 	lookupStabilitySig:mean 	0.96550538442098
scalar Network.dyn_peer[332] 	lookupHopsSig:mean 	46.55
scalar Network.dyn_peer[333] 	lookupTimeSig:mean 	3.7615384615385
scalar Network.dyn_peer[333] 	lookupStabilitySig:mean 	0.96725943763382
scalar Network.dyn_peer[333] 	lookupHopsSig:mean 	36.692307692308
scalar Network.dyn_peer[334] 	lookupTimeSig:mean 	2.4866666666667
scalar Network.dyn_peer[334] 	lookupStabilitySig:mean 	0.96092432563504
scalar Network.dyn_peer[334] 	lookupHopsSig:mean 	23.933333333333
scalar Network.dyn_peer[335] 	lookupTimeSig:mean 	2.9333333333333
scalar Network.dyn_peer[335] 	lookupStabilitySig:mean 	0.97041637692989
scalar Network.dyn_peer[335] 	lookupHopsSig:mean 	28.388888888889
scalar Network.dyn_peer[336] 	lookupTimeSig:mean 	3.2055555555556
scalar Network.dyn_peer[336] 	lookupStabilitySig:mean 	0.97211283773908
scalar Network.dyn_peer[336] 	lookupHopsSig:mean 	31.111111111111
scalar Network.dyn_peer[337] 	lookupTimeSig:mean 	2.75
scalar Network.dyn_peer[337] 	lookupStabilitySig:mean 	0.96590678258023
scalar Network.dyn_peer[337] 	lookupHopsSig:mean 	26.555555555556
scalar Network.dyn_peer[338] 	lookupTimeSig:mean 	2.4076923076923
scalar Network.dyn_peer[338] 	lookupStabilitySig:mean 	0.95911146238303
scalar Network.dyn_peer[338] 	lookupHopsSig:mean 	23.153846153846
scalar Network.dyn_peer[339] 	lookupTimeSig:mean 	4.06875
scalar Network.dyn_peer[339] 	lookupStabilitySig:mean 	0.97838751188101
scalar Network.dyn_peer[339] 	lookupHopsSig:mean 	39.75
scalar Network.dyn_peer[340] 	lookupTimeSig:mean 	2.8238095238095
scalar Network.dyn_peer[340] 	lookupStabilitySig:mean 	0.97008754156663
scalar Network.dyn_peer[340] 	lookupHopsSig:mean 	27.285714285714
scalar Network.dyn_peer[341] 	lookupTimeSig:mean 	3.7
scalar Network.dyn_peer[341] 	lookupStabilitySig:mean 	0.97440560133566
scalar Network.dyn_peer[341] 	lookupHopsSig:mean 	36.034482758621
scalar Network.dyn_peer[342] 	lookupTimeSig:mean 	3.495652173913
scalar Network.dyn_peer[342] 	lookupStabilitySig:mean 	0.9727740845562
scalar Network.dyn_peer[342] 	lookupHopsSig:mean 	34
scalar Network.dyn_peer[343] 	lookupTimeSig:mean 	2.7863636363636
scalar Network.dyn_peer[343] 	lookupStabilitySig:mean 	0.96817042745401
scalar Network.dyn_peer[343] 	lookupHopsSig:mean 	26.909090909091
scalar Network.dyn_peer[344] 	lookupTimeSig:mean 	3.6558823529412
scalar Network.dyn_peer[344] 	lookupStabilitySig:mean 	0.98098377276363
scalar Network.dyn_peer[344] 	lookupHopsSig:mean 	35.588235294118
scalar Network.dyn_peer[345] 	lookupTimeSig:mean 	2.5
scalar Network.dyn_peer[345] 	lookupStabilitySig:mean 	0.97601388633484
scalar Network.dyn_peer[345] 	lookupHopsSig:mean 	24.055555555556
scalar Network.dyn_peer[346] 	lookupTimeSig:mean 	3.588
scalar Network.dyn_peer[346] 	lookupStabilitySig:mean 	0.9745067149587
scalar Network.dyn_peer[346] 	lookupHopsSig:mean 	34.92
scalar Network.dyn_peer[347] 	lookupTimeSig:mean 	3.5666666666667
scalar Network.dyn_peer[347] 	lookupStabilitySig:mean 	0.96920787959567
scalar Network.dyn_peer[347] 	lookupHopsSig:mean 	34.722222222222
scalar Network.dyn_peer[348] 	lookupTimeSig:mean 	1.6833333333333
scalar Network.dyn_peer[348] 	lookupStabilitySig:mean 	0.96691743288344
scalar Network.dyn_peer[348] 	lookupHopsSig:mean 	15.916666666667
scalar Network.dyn_peer[349] 	lookupTimeSig:mean 	3.5735294117647
scalar Network.dyn_peer[349] 	lookupStabilitySig:mean 	0.97898822052486
scalar Network.dyn_peer[349] 	lookupHopsSig:mean 	34.764705882353
scalar Network.dyn_peer[350] 	lookupTimeSig:mean 	3.084
scalar Network.dyn_peer[350] 	lookupStabilitySig:mean 	0.97619639111683
scalar Network.dyn_peer[350] 	lookupHopsSig:mean 	29.88
scalar Network.dyn_peer[351] 	lookupTimeSig:mean 	3.0533333333333
scalar Network.dyn_peer[351] 	lookupStabilitySig:mean 	0.97608433548982
scalar Network.dyn_peer[351] 	lookupHopsSig:mean 	29.6
scalar Network.dyn_peer[352] 	lookupTimeSig:mean 	3.947619047619
scalar Network.dyn_peer[352] 	lookupStabilitySig:mean 	0.971894328998
scalar Network.dyn_peer[352] 	lookupHopsSig:mean 	38.52380952381
scalar Network.dyn_peer[353] 	lookupTimeSig:mean 	2.7518518518519
scalar Network.dyn_peer[353] 	lookupStabilitySig:mean 	0.97427837226402
scalar Network.dyn_peer[353] 	lookupHopsSig:mean 	26.555555555556
scalar Network.dyn_peer[354] 	lookupTimeSig:mean 	3.5333333333333
scalar Network.dyn_peer[354] 	lookupStabilitySig:mean 	0.94874345387022
scalar Network.dyn_peer[354] 	lookupHopsSig:mean 	34.444444444444
scalar Network.dyn_peer[355] 	lookupTimeSig:mean 	2.3875
scalar Network.dyn_peer[355] 	lookupStabilitySig:mean 	0.97219404658244
scalar Network.dyn_peer[355] 	lookupHopsSig:mean 	22.9375
scalar Network.dyn_peer[356] 	lookupTimeSig:mean 	3.1807692307692
scalar Network.dyn_peer[356] 	lookupStabilitySig:mean 	0.97269222616272
scalar Network.dyn_peer[356] 	lookupHopsSig:mean 	30.846153846154
scalar Network.dyn_peer[357] 	lookupTimeSig:mean 	2.3208333333333
scalar Network.dyn_peer[357] 	lookupStabilitySig:mean 	0.97422144383745
scalar Network.dyn_peer[357] 	lookupHopsSig:mean 	22.25
scalar Network.dyn_peer[358] 	lookupTimeSig:mean 	3.4608695652174
scalar Network.dyn_peer[358] 	lookupStabilitySig:mean 	0.97073455441379
scalar Network.dyn_peer[358] 	lookupHopsSig:mean 	33.652173913043
scalar Network.dyn_peer[359] 	lookupTimeSig:mean 	2.7416666666667
scalar Network.dyn_peer[359] 	lookupStabilitySig:mean 	0.96033641715379
scalar Network.dyn_peer[359] 	lookupHopsSig:mean 	26.5
scalar Network.dyn_peer[360] 	lookupTimeSig:mean 	3.7681818181818
scalar Network.dyn_peer[360] 	lookupStabilitySig:mean 	0.97331115964334
scalar Network.dyn_peer[360] 	lookupHopsSig:mean 	36.727272727273
scalar Network.dyn_peer[361] 	lookupTimeSig:mean 	3.6625
scalar Network.dyn_peer[361] 	lookupStabilitySig:mean 	0.97151930810651
scalar Network.dyn_peer[361] 	lookupHopsSig:mean 	35.666666666667
scalar Network.dyn_peer[362] 	lookupTimeSig:mean 	4.8518518518519
scalar Network.dyn_peer[362] 	lookupStabilitySig:mean 	0.9783246956024
scalar Network.dyn_peer[362] 	lookupHopsSig:mean 	47.555555555556
scalar Network.dyn_peer[363] 	lookupTimeSig:mean 	4.3894736842105
scalar Network.dyn_peer[363] 	lookupStabilitySig:mean 	0.96927275886073
scalar Network.dyn_peer[363] 	lookupHopsSig:mean 	42.947368421053
scalar Network.dyn_peer[364] 	lookupTimeSig:mean 	3.752380952381
scalar Network.dyn_peer[364] 	lookupStabilitySig:mean 	0.97334579534696
scalar Network.dyn_peer[364] 	lookupHopsSig:mean 	36.571428571429
scalar Network.dyn_peer[365] 	lookupTimeSig:mean 	4.0107142857143
scalar Network.dyn_peer[365] 	lookupStabilitySig:mean 	0.97601653518255
scalar Network.dyn_peer[365] 	lookupHopsSig:mean 	39.142857142857
scalar Network.dyn_peer[366] 	lookupTimeSig:mean 	4.1391304347826
scalar Network.dyn_peer[366] 	lookupStabilitySig:mean 	0.97000155196039
scalar Network.dyn_peer[366] 	lookupHopsSig:mean 	40.434782608696
scalar Network.dyn_peer[367] 	lookupTimeSig:mean 	3.3944444444444
scalar Network.dyn_peer[367] 	lookupStabilitySig:mean 	0.96607319656242
scalar Network.dyn_peer[367] 	lookupHopsSig:mean 	33
scalar Network.dyn_peer[368] 	lookupTimeSig:mean 	2.3333333333333
scalar Network.dyn_peer[368] 	lookupStabilitySig:mean 	0.96844388168926
scalar Network.dyn_peer[368] 	lookupHopsSig:mean 	22.4
scalar Network.dyn_peer[369] 	lookupTimeSig:mean 	3.435
scalar Network.dyn_peer[369] 	lookupStabilitySig:mean 	0.9708800729597
scalar Network.dyn_peer[369] 	lookupHopsSig:mean 	33.4
scalar Network.dyn_peer[370] 	lookupTimeSig:mean 	3.925
scalar Network.dyn_peer[370] 	lookupStabilitySig:mean 	0.97189647446794
scalar Network.dyn_peer[370] 	lookupHopsSig:mean 	38.3125
scalar Network.dyn_peer[371] 	lookupTimeSig:mean 	2.7851851851852
scalar Network.dyn_peer[371] 	lookupStabilitySig:mean 	0.9752207462443
scalar Network.dyn_peer[371] 	lookupHopsSig:mean 	26.888888888889
scalar Network.dyn_peer[372] 	lookupTimeSig:mean 	2.9857142857143
scalar Network.dyn_peer[372] 	lookupStabilitySig:mean 	0.97204744596716
scalar Network.dyn_peer[372] 	lookupHopsSig:mean 	28.928571428571
scalar Network.dyn_peer[373] 	lookupTimeSig:mean 	3.2347826086957
scalar Network.dyn_peer[373] 	lookupStabilitySig:mean 	0.97764973631432
scalar Network.dyn_peer[373] 	lookupHopsSig:mean 	31.391304347826
scalar Network.dyn_peer[374] 	lookupTimeSig:mean 	3.24
scalar Network.dyn_peer[374] 	lookupStabilitySig:mean 	0.96130624944344
scalar Network.dyn_peer[374] 	lookupHopsSig:mean 	31.466666666667
scalar Network.dyn_peer[375] 	lookupTimeSig:mean 	4.0625
scalar Network.dyn_peer[375] 	lookupStabilitySig:mean 	0.98158250905302
scalar Network.dyn_peer[375] 	lookupHopsSig:mean 	39.666666666667
scalar Network.dyn_peer[376] 	lookupTimeSig:mean 	2.1833333333333
scalar Network.dyn_peer[376] 	lookupStabilitySig:mean 	0.96883045358118
scalar Network.dyn_peer[376] 	lookupHopsSig:mean 	20.916666666667
scalar Network.dyn_peer[377] 	lookupTimeSig:mean 	3.5333333333333
scalar Network.dyn_peer[377] 	lookupStabilitySig:mean 	0.96088939484131
scalar Network.dyn_peer[377] 	lookupHopsSig:mean 	34.416666666667
scalar Network.dyn_peer[378] 	lookupTimeSig:mean 	3.62
scalar Network.dyn_peer[378] 	lookupStabilitySig:mean 	0.98058031050605
scalar Network.dyn_peer[378] 	lookupHopsSig:mean 	35.24
scalar Network.dyn_peer[379] 	lookupTimeSig:mean 	2.36875
scalar Network.dyn_peer[379] 	lookupStabilitySig:mean 	0.96503226509594
scalar Network.dyn_peer[379] 	lookupHopsSig:mean 	22.75
scalar Network.dyn_peer[380] 	lookupTimeSig:mean 	3.0833333333333
scalar Network.dyn_peer[380] 	lookupStabilitySig:mean 	0.97495741028009
scalar Network.dyn_peer[380] 	lookupHopsSig:mean 	29.875
scalar Network.dyn_peer[381] 	lookupTimeSig:mean 	3.275
scalar Network.dyn_peer[381] 	lookupStabilitySig:mean 	0.97692435130011
scalar Network.dyn_peer[381] 	lookupHopsSig:mean 	31.833333333333
scalar Network.dyn_peer[382] 	lookupTimeSig:mean 	2.2636363636364
scalar Network.dyn_peer[382] 	lookupStabilitySig:mean 	0.97591132739432
scalar Network.dyn_peer[382] 	lookupHopsSig:mean 	21.681818181818
scalar Network.dyn_peer[383] 	lookupTimeSig:mean 	3.6227272727273
scalar Network.dyn_peer[383] 	lookupStabilitySig:mean 	0.97481616166293
scalar Network.dyn_peer[383] 	lookupHopsSig:mean 	35.272727272727
scalar Network.dyn_peer[384] 	lookupTimeSig:mean 	2.88125
scalar Network.dyn_peer[384] 	lookupStabilitySig:mean 	0.96738630306209
scalar Network.dyn_peer[384] 	lookupHopsSig:mean 	27.875
scalar Network.dyn_peer[385] 	lookupTimeSig:mean 	2.65
scalar Network.dyn_peer[385] 	lookupStabilitySig:mean 	0.97508456339953
scalar Network.dyn_peer[385] 	lookupHopsSig:mean 	25.541666666667
scalar Network.dyn_peer[386] 	lookupTimeSig:mean 	2.9235294117647
scalar Network.dyn_peer[386] 	lookupStabilitySig:mean 	0.96539976710782
scalar Network.dyn_peer[386] 	lookupHopsSig:mean 	28.294117647059
scalar Network.dyn_peer[387] 	lookupTimeSig:mean 	3.6346153846154
scalar Network.dyn_peer[387] 	lookupStabilitySig:mean 	0.97892372888208
scalar Network.dyn_peer[387] 	lookupHopsSig:mean 	35.384615384615
scalar Network.dyn_peer[388] 	lookupTimeSig:mean 	3.1833333333333
scalar Network.dyn_peer[388] 	lookupStabilitySig:mean 	0.96199218987749
scalar Network.dyn_peer[388] 	lookupHopsSig:mean 	30.916666666667
scalar Network.dyn_peer[389] 	lookupTimeSig:mean 	3.5
scalar Network.dyn_peer[389] 	lookupStabilitySig:mean 	0.97059354989878
scalar Network.dyn_peer[389] 	lookupHopsSig:mean 	34.047619047619
scalar Network.dyn_peer[390] 	lookupTimeSig:mean 	3.9545454545455
scalar Network.dyn_peer[390] 	lookupStabilitySig:mean 	0.95550283836201
scalar Network.dyn_peer[390] 	lookupHopsSig:mean 	38.636363636364
scalar Network.dyn_peer[391] 	lookupTimeSig:mean 	4.5857142857143
scalar Network.dyn_peer[391] 	lookupStabilitySig:mean 	0.9703828301946
scalar Network.dyn_peer[391] 	lookupHopsSig:mean 	44.904761904762
scalar Network.dyn_peer[392] 	lookupTimeSig:mean 	3.775
scalar Network.dyn_peer[392] 	lookupStabilitySig:mean 	0.97673090995522
scalar Network.dyn_peer[392] 	lookupHopsSig:mean 	36.8
scalar Network.dyn_peer[393] 	lookupTimeSig:mean 	2.84
scalar Network.dyn_peer[393] 	lookupStabilitySig:mean 	0.98215243791346
scalar Network.dyn_peer[393] 	lookupHopsSig:mean 	27.45
scalar Network.dyn_peer[394] 	lookupTimeSig:mean 	3.2259259259259
scalar Network.dyn_peer[394] 	lookupStabilitySig:mean 	0.97930437393693
scalar Network.dyn_peer[394] 	lookupHopsSig:mean 	31.296296296296
scalar Network.dyn_peer[395] 	lookupTimeSig:mean 	4.1625
scalar Network.dyn_peer[395] 	lookupStabilitySig:mean 	0.97486273431059
scalar Network.dyn_peer[395] 	lookupHopsSig:mean 	40.6875
scalar Network.dyn_peer[396] 	lookupTimeSig:mean 	2.585
scalar Network.dyn_peer[396] 	lookupStabilitySig:mean 	0.97420662806835
scalar Network.dyn_peer[396] 	lookupHopsSig:mean 	24.9
scalar Network.dyn_peer[397] 	lookupTimeSig:mean 	2.8823529411765
scalar Network.dyn_peer[397] 	lookupStabilitySig:mean 	0.9706161852433
scalar Network.dyn_peer[397] 	lookupHopsSig:mean 	27.882352941176
scalar Network.dyn_peer[398] 	lookupTimeSig:mean 	2.9823529411765
scalar Network.dyn_peer[398] 	lookupStabilitySig:mean 	0.97082212602939
scalar Network.dyn_peer[398] 	lookupHopsSig:mean 	28.882352941176
scalar Network.dyn_peer[399] 	lookupTimeSig:mean 	4.0117647058824
scalar Network.dyn_peer[399] 	lookupStabilitySig:mean 	0.97200004312703
scalar Network.dyn_peer[399] 	lookupHopsSig:mean 	39.176470588235
scalar Network.dyn_peer[400] 	lookupTimeSig:mean 	3.6
scalar Network.dyn_peer[400] 	lookupStabilitySig:mean 	0.97453216154827
scalar Network.dyn_peer[400] 	lookupHopsSig:mean 	35.045454545455
scalar Network.dyn_peer[401] 	lookupTimeSig:mean 	3.525
scalar Network.dyn_peer[401] 	lookupStabilitySig:mean 	0.9759691424435
scalar Network.dyn_peer[401] 	lookupHopsSig:mean 	34.3
scalar Network.dyn_peer[402] 	lookupTimeSig:mean 	4.2409090909091
scalar Network.dyn_peer[402] 	lookupStabilitySig:mean 	0.97184950781097
scalar Network.dyn_peer[402] 	lookupHopsSig:mean 	41.454545454545
scalar Network.dyn_peer[403] 	lookupTimeSig:mean 	2.5294117647059
scalar Network.dyn_peer[403] 	lookupStabilitySig:mean 	0.97279254076592
scalar Network.dyn_peer[403] 	lookupHopsSig:mean 	24.352941176471
scalar Network.dyn_peer[404] 	lookupTimeSig:mean 	2.92
scalar Network.dyn_peer[404] 	lookupStabilitySig:mean 	0.96477359179407
scalar Network.dyn_peer[404] 	lookupHopsSig:mean 	28.3
scalar Network.dyn_peer[405] 	lookupTimeSig:mean 	2.7380952380952
scalar Network.dyn_peer[405] 	lookupStabilitySig:mean 	0.97470378830275
[...]
scalar Network.dyn_peer[9898] 	lookupStabilitySig:mean 	0.98975652409717
scalar Network.dyn_peer[9898] 	lookupHopsSig:mean 	75.5
scalar Network.dyn_peer[9899] 	lookupTimeSig:mean 	4.5375
scalar Network.dyn_peer[9899] 	lookupStabilitySig:mean 	0.99442242231453
scalar Network.dyn_peer[9899] 	lookupHopsSig:mean 	44.5
scalar Network.dyn_peer[9900] 	lookupTimeSig:mean 	6.4333333333333
scalar Network.dyn_peer[9900] 	lookupStabilitySig:mean 	0.99149330581228
scalar Network.dyn_peer[9900] 	lookupHopsSig:mean 	63.666666666667
scalar Network.dyn_peer[9901] 	lookupTimeSig:mean 	5.1
scalar Network.dyn_peer[9901] 	lookupStabilitySig:mean 	0.99310195089007
scalar Network.dyn_peer[9901] 	lookupHopsSig:mean 	50.333333333333
scalar Network.dyn_peer[9902] 	lookupTimeSig:mean 	5.35
scalar Network.dyn_peer[9902] 	lookupStabilitySig:mean 	0.99301803286653
scalar Network.dyn_peer[9902] 	lookupHopsSig:mean 	52.75
scalar Network.dyn_peer[9903] 	lookupTimeSig:mean 	5
scalar Network.dyn_peer[9903] 	lookupStabilitySig:mean 	0.99396137942676
scalar Network.dyn_peer[9903] 	lookupHopsSig:mean 	49.125
scalar Network.dyn_peer[9904] 	lookupTimeSig:mean 	5.7583333333333
scalar Network.dyn_peer[9904] 	lookupStabilitySig:mean 	0.99356944140163
scalar Network.dyn_peer[9904] 	lookupHopsSig:mean 	56.666666666667
scalar Network.dyn_peer[9905] 	lookupTimeSig:mean 	4.85
scalar Network.dyn_peer[9905] 	lookupStabilitySig:mean 	0.99412489146926
scalar Network.dyn_peer[9905] 	lookupHopsSig:mean 	47.625
scalar Network.dyn_peer[9906] 	lookupTimeSig:mean 	7.8375
scalar Network.dyn_peer[9906] 	lookupStabilitySig:mean 	0.9912662114657
scalar Network.dyn_peer[9906] 	lookupHopsSig:mean 	77.5
scalar Network.dyn_peer[9907] 	lookupTimeSig:mean 	3.2857142857143
scalar Network.dyn_peer[9907] 	lookupStabilitySig:mean 	0.9961242318116
scalar Network.dyn_peer[9907] 	lookupHopsSig:mean 	31.928571428571
scalar Network.dyn_peer[9908] 	lookupTimeSig:mean 	4.9375
scalar Network.dyn_peer[9908] 	lookupStabilitySig:mean 	0.99403402283497
scalar Network.dyn_peer[9908] 	lookupHopsSig:mean 	48.5
scalar Network.dyn_peer[9909] 	lookupTimeSig:mean 	4.9
scalar Network.dyn_peer[9909] 	lookupStabilitySig:mean 	0.9940616270178
scalar Network.dyn_peer[9909] 	lookupHopsSig:mean 	48.125
scalar Network.dyn_peer[9910] 	lookupTimeSig:mean 	4.1444444444444
scalar Network.dyn_peer[9910] 	lookupStabilitySig:mean 	0.99493163498119
scalar Network.dyn_peer[9910] 	lookupHopsSig:mean 	40.555555555556
scalar Network.dyn_peer[9911] 	lookupTimeSig:mean 	6.5444444444444
scalar Network.dyn_peer[9911] 	lookupStabilitySig:mean 	0.99254921347731
scalar Network.dyn_peer[9911] 	lookupHopsSig:mean 	64.555555555556
scalar Network.dyn_peer[9912] 	lookupTimeSig:mean 	4.9818181818182
scalar Network.dyn_peer[9912] 	lookupStabilitySig:mean 	0.99425582602535
scalar Network.dyn_peer[9912] 	lookupHopsSig:mean 	48.909090909091
scalar Network.dyn_peer[9913] 	lookupTimeSig:mean 	7.275
scalar Network.dyn_peer[9913] 	lookupStabilitySig:mean 	0.99090280832024
scalar Network.dyn_peer[9913] 	lookupHopsSig:mean 	72
scalar Network.dyn_peer[9914] 	lookupTimeSig:mean 	6.5
scalar Network.dyn_peer[9914] 	lookupStabilitySig:mean 	0.99111822992563
scalar Network.dyn_peer[9914] 	lookupHopsSig:mean 	64.5
scalar Network.dyn_peer[9915] 	lookupTimeSig:mean 	6.14
scalar Network.dyn_peer[9915] 	lookupStabilitySig:mean 	0.99238836029544
scalar Network.dyn_peer[9915] 	lookupHopsSig:mean 	60.6
scalar Network.dyn_peer[9916] 	lookupTimeSig:mean 	5.6142857142857
scalar Network.dyn_peer[9916] 	lookupStabilitySig:mean 	0.9931979211646
scalar Network.dyn_peer[9916] 	lookupHopsSig:mean 	55.285714285714
scalar Network.dyn_peer[9917] 	lookupTimeSig:mean 	3.1142857142857
scalar Network.dyn_peer[9917] 	lookupStabilitySig:mean 	0.99594919689532
scalar Network.dyn_peer[9917] 	lookupHopsSig:mean 	30.285714285714
scalar Network.dyn_peer[9918] 	lookupTimeSig:mean 	5.0133333333333
scalar Network.dyn_peer[9918] 	lookupStabilitySig:mean 	0.99442911952113
scalar Network.dyn_peer[9918] 	lookupHopsSig:mean 	49.2
scalar Network.dyn_peer[9919] 	lookupTimeSig:mean 	5.75
scalar Network.dyn_peer[9919] 	lookupStabilitySig:mean 	0.99292622654078
scalar Network.dyn_peer[9919] 	lookupHopsSig:mean 	56.666666666667
scalar Network.dyn_peer[9920] 	lookupTimeSig:mean 	6.4333333333333
scalar Network.dyn_peer[9920] 	lookupStabilitySig:mean 	0.99152787340184
scalar Network.dyn_peer[9920] 	lookupHopsSig:mean 	63.666666666667
scalar Network.dyn_peer[9921] 	lookupTimeSig:mean 	3.15
scalar Network.dyn_peer[9921] 	lookupStabilitySig:mean 	0.99550189473666
scalar Network.dyn_peer[9921] 	lookupHopsSig:mean 	31
scalar Network.dyn_peer[9922] 	lookupTimeSig:mean 	4.9142857142857
scalar Network.dyn_peer[9922] 	lookupStabilitySig:mean 	0.99447271066518
scalar Network.dyn_peer[9922] 	lookupHopsSig:mean 	48.214285714286
scalar Network.dyn_peer[9923] 	lookupTimeSig:mean 	3.4142857142857
scalar Network.dyn_peer[9923] 	lookupStabilitySig:mean 	0.99559415547576
scalar Network.dyn_peer[9923] 	lookupHopsSig:mean 	33.285714285714
scalar Network.dyn_peer[9924] 	lookupTimeSig:mean 	4.0285714285714
scalar Network.dyn_peer[9924] 	lookupStabilitySig:mean 	0.99492479190563
scalar Network.dyn_peer[9924] 	lookupHopsSig:mean 	39.428571428571
scalar Network.dyn_peer[9925] 	lookupTimeSig:mean 	5.94
scalar Network.dyn_peer[9925] 	lookupStabilitySig:mean 	0.99252972574905
scalar Network.dyn_peer[9925] 	lookupHopsSig:mean 	58.6
scalar Network.dyn_peer[9926] 	lookupTimeSig:mean 	4.52
scalar Network.dyn_peer[9926] 	lookupStabilitySig:mean 	0.99467927289661
scalar Network.dyn_peer[9926] 	lookupHopsSig:mean 	44.3
scalar Network.dyn_peer[9927] 	lookupTimeSig:mean 	4.3538461538462
scalar Network.dyn_peer[9927] 	lookupStabilitySig:mean 	0.99500744972521
scalar Network.dyn_peer[9927] 	lookupHopsSig:mean 	42.615384615385
scalar Network.dyn_peer[9928] 	lookupTimeSig:mean 	6.1727272727273
scalar Network.dyn_peer[9928] 	lookupStabilitySig:mean 	0.99306572999128
scalar Network.dyn_peer[9928] 	lookupHopsSig:mean 	60.818181818182
scalar Network.dyn_peer[9929] 	lookupTimeSig:mean 	1.875
scalar Network.dyn_peer[9929] 	lookupStabilitySig:mean 	0.99740094459412
scalar Network.dyn_peer[9929] 	lookupHopsSig:mean 	18
scalar Network.dyn_peer[9930] 	lookupTimeSig:mean 	5.24
scalar Network.dyn_peer[9930] 	lookupStabilitySig:mean 	0.99421444785936
scalar Network.dyn_peer[9930] 	lookupHopsSig:mean 	51.466666666667
scalar Network.dyn_peer[9931] 	lookupTimeSig:mean 	4.3846153846154
scalar Network.dyn_peer[9931] 	lookupStabilitySig:mean 	0.9949578188109
scalar Network.dyn_peer[9931] 	lookupHopsSig:mean 	42.923076923077
scalar Network.dyn_peer[9932] 	lookupTimeSig:mean 	3.58
scalar Network.dyn_peer[9932] 	lookupStabilitySig:mean 	0.99564640683238
scalar Network.dyn_peer[9932] 	lookupHopsSig:mean 	34.9
scalar Network.dyn_peer[9933] 	lookupTimeSig:mean 	4.5769230769231
scalar Network.dyn_peer[9933] 	lookupStabilitySig:mean 	0.99482600185393
scalar Network.dyn_peer[9933] 	lookupHopsSig:mean 	44.846153846154
scalar Network.dyn_peer[9934] 	lookupTimeSig:mean 	6.3
scalar Network.dyn_peer[9934] 	lookupStabilitySig:mean 	0.99315449785042
scalar Network.dyn_peer[9934] 	lookupHopsSig:mean 	62.071428571429
scalar Network.dyn_peer[9935] 	lookupTimeSig:mean 	3.74
scalar Network.dyn_peer[9935] 	lookupStabilitySig:mean 	0.99504932691343
scalar Network.dyn_peer[9935] 	lookupHopsSig:mean 	36.6
scalar Network.dyn_peer[9936] 	lookupTimeSig:mean 	3.9333333333333
scalar Network.dyn_peer[9936] 	lookupStabilitySig:mean 	0.99495579494396
scalar Network.dyn_peer[9936] 	lookupHopsSig:mean 	38.5
scalar Network.dyn_peer[9937] 	lookupTimeSig:mean 	5.65
scalar Network.dyn_peer[9937] 	lookupStabilitySig:mean 	0.99351312485524
scalar Network.dyn_peer[9937] 	lookupHopsSig:mean 	55.6
scalar Network.dyn_peer[9938] 	lookupTimeSig:mean 	4.8058823529412
scalar Network.dyn_peer[9938] 	lookupStabilitySig:mean 	0.99471527644817
scalar Network.dyn_peer[9938] 	lookupHopsSig:mean 	47.117647058824
scalar Network.dyn_peer[9939] 	lookupTimeSig:mean 	5.6
scalar Network.dyn_peer[9939] 	lookupStabilitySig:mean 	0.99236026825383
scalar Network.dyn_peer[9939] 	lookupHopsSig:mean 	55.5
scalar Network.dyn_peer[9940] 	lookupTimeSig:mean 	6.4222222222222
scalar Network.dyn_peer[9940] 	lookupStabilitySig:mean 	0.99264003282102
scalar Network.dyn_peer[9940] 	lookupHopsSig:mean 	63.333333333333
scalar Network.dyn_peer[9941] 	lookupTimeSig:mean 	5.5285714285714
scalar Network.dyn_peer[9941] 	lookupStabilitySig:mean 	0.99337052520631
scalar Network.dyn_peer[9941] 	lookupHopsSig:mean 	54.428571428571
scalar Network.dyn_peer[9942] 	lookupTimeSig:mean 	2.84
scalar Network.dyn_peer[9942] 	lookupStabilitySig:mean 	0.99616776132025
scalar Network.dyn_peer[9942] 	lookupHopsSig:mean 	27.6
scalar Network.dyn_peer[9943] 	lookupTimeSig:mean 	3.1833333333333
scalar Network.dyn_peer[9943] 	lookupStabilitySig:mean 	0.99588110552577
scalar Network.dyn_peer[9943] 	lookupHopsSig:mean 	31
scalar Network.dyn_peer[9944] 	lookupTimeSig:mean 	5.58
scalar Network.dyn_peer[9944] 	lookupStabilitySig:mean 	0.99295890331268
scalar Network.dyn_peer[9944] 	lookupHopsSig:mean 	55
scalar Network.dyn_peer[9945] 	lookupTimeSig:mean 	3.3833333333333
scalar Network.dyn_peer[9945] 	lookupStabilitySig:mean 	0.99556963522142
scalar Network.dyn_peer[9945] 	lookupHopsSig:mean 	33
scalar Network.dyn_peer[9946] 	lookupTimeSig:mean 	4.8666666666667
scalar Network.dyn_peer[9946] 	lookupStabilitySig:mean 	0.99459504919748
scalar Network.dyn_peer[9946] 	lookupHopsSig:mean 	47.733333333333
scalar Network.dyn_peer[9947] 	lookupTimeSig:mean 	4.24
scalar Network.dyn_peer[9947] 	lookupStabilitySig:mean 	0.9949346414418
scalar Network.dyn_peer[9947] 	lookupHopsSig:mean 	41.5
scalar Network.dyn_peer[9948] 	lookupTimeSig:mean 	8
scalar Network.dyn_peer[9948] 	lookupStabilitySig:mean 	0.98947932734154
scalar Network.dyn_peer[9948] 	lookupHopsSig:mean 	79.5
scalar Network.dyn_peer[9949] 	lookupTimeSig:mean 	5.0714285714286
scalar Network.dyn_peer[9949] 	lookupStabilitySig:mean 	0.99379381883357
scalar Network.dyn_peer[9949] 	lookupHopsSig:mean 	49.857142857143
scalar Network.dyn_peer[9950] 	lookupTimeSig:mean 	4.8222222222222
scalar Network.dyn_peer[9950] 	lookupStabilitySig:mean 	0.99427319750086
scalar Network.dyn_peer[9950] 	lookupHopsSig:mean 	47.333333333333
scalar Network.dyn_peer[9951] 	lookupTimeSig:mean 	5.26
scalar Network.dyn_peer[9951] 	lookupStabilitySig:mean 	0.99330819770694
scalar Network.dyn_peer[9951] 	lookupHopsSig:mean 	51.8
scalar Network.dyn_peer[9952] 	lookupTimeSig:mean 	3.8
scalar Network.dyn_peer[9952] 	lookupStabilitySig:mean 	0.99490276823053
scalar Network.dyn_peer[9952] 	lookupHopsSig:mean 	37.25
scalar Network.dyn_peer[9953] 	lookupTimeSig:mean 	3.5916666666667
scalar Network.dyn_peer[9953] 	lookupStabilitySig:mean 	0.99572330718123
scalar Network.dyn_peer[9953] 	lookupHopsSig:mean 	35
scalar Network.dyn_peer[9954] 	lookupTimeSig:mean 	5.5666666666667
scalar Network.dyn_peer[9954] 	lookupStabilitySig:mean 	0.99377124275391
scalar Network.dyn_peer[9954] 	lookupHopsSig:mean 	54.75
scalar Network.dyn_peer[9955] 	lookupTimeSig:mean 	5.5875
scalar Network.dyn_peer[9955] 	lookupStabilitySig:mean 	0.99341656576144
scalar Network.dyn_peer[9955] 	lookupHopsSig:mean 	55
scalar Network.dyn_peer[9956] 	lookupTimeSig:mean 	4.6428571428571
scalar Network.dyn_peer[9956] 	lookupStabilitySig:mean 	0.99428996081198
scalar Network.dyn_peer[9956] 	lookupHopsSig:mean 	45.571428571429
scalar Network.dyn_peer[9957] 	lookupTimeSig:mean 	4.66
scalar Network.dyn_peer[9957] 	lookupStabilitySig:mean 	0.99398277313448
scalar Network.dyn_peer[9957] 	lookupHopsSig:mean 	45.8
scalar Network.dyn_peer[9958] 	lookupTimeSig:mean 	5.2846153846154
scalar Network.dyn_peer[9958] 	lookupStabilitySig:mean 	0.99407688275768
scalar Network.dyn_peer[9958] 	lookupHopsSig:mean 	51.923076923077
scalar Network.dyn_peer[9959] 	lookupTimeSig:mean 	3.45
scalar Network.dyn_peer[9959] 	lookupStabilitySig:mean 	0.99512859201059
scalar Network.dyn_peer[9959] 	lookupHopsSig:mean 	34
scalar Network.dyn_peer[9960] 	lookupTimeSig:mean 	6.9142857142857
scalar Network.dyn_peer[9960] 	lookupStabilitySig:mean 	0.99191722019376
scalar Network.dyn_peer[9960] 	lookupHopsSig:mean 	68.285714285714
scalar Network.dyn_peer[9961] 	lookupTimeSig:mean 	3.8
scalar Network.dyn_peer[9961] 	lookupStabilitySig:mean 	0.99490801541833
scalar Network.dyn_peer[9961] 	lookupHopsSig:mean 	37.25
scalar Network.dyn_peer[9962] 	lookupTimeSig:mean 	4.7
scalar Network.dyn_peer[9962] 	lookupStabilitySig:mean 	0.99419846937859
scalar Network.dyn_peer[9962] 	lookupHopsSig:mean 	46.142857142857
scalar Network.dyn_peer[9963] 	lookupTimeSig:mean 	3.5
scalar Network.dyn_peer[9963] 	lookupStabilitySig:mean 	0.99551334454944
scalar Network.dyn_peer[9963] 	lookupHopsSig:mean 	34.142857142857
scalar Network.dyn_peer[9964] 	lookupTimeSig:mean 	5.2615384615385
scalar Network.dyn_peer[9964] 	lookupStabilitySig:mean 	0.99410900678217
scalar Network.dyn_peer[9964] 	lookupHopsSig:mean 	51.692307692308
scalar Network.dyn_peer[9965] 	lookupTimeSig:mean 	7
scalar Network.dyn_peer[9965] 	lookupStabilitySig:mean 	0.99054054869339
scalar Network.dyn_peer[9965] 	lookupHopsSig:mean 	69.5
scalar Network.dyn_peer[9966] 	lookupTimeSig:mean 	8.1428571428571
scalar Network.dyn_peer[9966] 	lookupStabilitySig:mean 	0.99068998106356
scalar Network.dyn_peer[9966] 	lookupHopsSig:mean 	80.571428571429
scalar Network.dyn_peer[9967] 	lookupTimeSig:mean 	5.1
scalar Network.dyn_peer[9967] 	lookupStabilitySig:mean 	0.99378532071465
scalar Network.dyn_peer[9967] 	lookupHopsSig:mean 	50.142857142857
scalar Network.dyn_peer[9968] 	lookupTimeSig:mean 	5.1142857142857
scalar Network.dyn_peer[9968] 	lookupStabilitySig:mean 	0.99374745889301
scalar Network.dyn_peer[9968] 	lookupHopsSig:mean 	50.285714285714
scalar Network.dyn_peer[9969] 	lookupTimeSig:mean 	2.8
scalar Network.dyn_peer[9969] 	lookupStabilitySig:mean 	0.99600622826256
scalar Network.dyn_peer[9969] 	lookupHopsSig:mean 	27.5
scalar Network.dyn_peer[9970] 	lookupTimeSig:mean 	5.5363636363636
scalar Network.dyn_peer[9970] 	lookupStabilitySig:mean 	0.99372676283714
scalar Network.dyn_peer[9970] 	lookupHopsSig:mean 	54.454545454545
scalar Network.dyn_peer[9971] 	lookupTimeSig:mean 	5.6857142857143
scalar Network.dyn_peer[9971] 	lookupStabilitySig:mean 	0.99314638353618
scalar Network.dyn_peer[9971] 	lookupHopsSig:mean 	56
scalar Network.dyn_peer[9972] 	lookupTimeSig:mean 	5.675
scalar Network.dyn_peer[9972] 	lookupStabilitySig:mean 	0.99336192483315
scalar Network.dyn_peer[9972] 	lookupHopsSig:mean 	55.875
scalar Network.dyn_peer[9973] 	lookupTimeSig:mean 	6.1
scalar Network.dyn_peer[9973] 	lookupStabilitySig:mean 	0.9921910451958
scalar Network.dyn_peer[9973] 	lookupHopsSig:mean 	60.25
scalar Network.dyn_peer[9974] 	lookupTimeSig:mean 	7.55
scalar Network.dyn_peer[9974] 	lookupStabilitySig:mean 	0.98995518102311
scalar Network.dyn_peer[9974] 	lookupHopsSig:mean 	75
scalar Network.dyn_peer[9975] 	lookupTimeSig:mean 	5.6333333333333
scalar Network.dyn_peer[9975] 	lookupStabilitySig:mean 	0.99310246373837
scalar Network.dyn_peer[9975] 	lookupHopsSig:mean 	55.5
scalar Network.dyn_peer[9976] 	lookupTimeSig:mean 	5.0444444444444
scalar Network.dyn_peer[9976] 	lookupStabilitySig:mean 	0.99403321404114
scalar Network.dyn_peer[9976] 	lookupHopsSig:mean 	49.555555555556
scalar Network.dyn_peer[9977] 	lookupTimeSig:mean 	7.7375
scalar Network.dyn_peer[9977] 	lookupStabilitySig:mean 	0.99127878296713
scalar Network.dyn_peer[9977] 	lookupHopsSig:mean 	76.5
scalar Network.dyn_peer[9978] 	lookupTimeSig:mean 	4.1
scalar Network.dyn_peer[9978] 	lookupStabilitySig:mean 	0.99463578425348
scalar Network.dyn_peer[9978] 	lookupHopsSig:mean 	40.2
scalar Network.dyn_peer[9979] 	lookupTimeSig:mean 	7.5142857142857
scalar Network.dyn_peer[9979] 	lookupStabilitySig:mean 	0.99142296226429
scalar Network.dyn_peer[9979] 	lookupHopsSig:mean 	74.285714285714
scalar Network.dyn_peer[9980] 	lookupTimeSig:mean 	4.94
scalar Network.dyn_peer[9980] 	lookupStabilitySig:mean 	0.99367391588166
scalar Network.dyn_peer[9980] 	lookupHopsSig:mean 	48.6
scalar Network.dyn_peer[9981] 	lookupTimeSig:mean 	5.9375
scalar Network.dyn_peer[9981] 	lookupStabilitySig:mean 	0.99359672113496
scalar Network.dyn_peer[9981] 	lookupHopsSig:mean 	58.4375
scalar Network.dyn_peer[9982] 	lookupTimeSig:mean 	7.6714285714286
scalar Network.dyn_peer[9982] 	lookupStabilitySig:mean 	0.99116777362568
scalar Network.dyn_peer[9982] 	lookupHopsSig:mean 	75.857142857143
scalar Network.dyn_peer[9983] 	lookupTimeSig:mean 	5.125
scalar Network.dyn_peer[9983] 	lookupStabilitySig:mean 	0.9933528190013
scalar Network.dyn_peer[9983] 	lookupHopsSig:mean 	50.5
scalar Network.dyn_peer[9984] 	lookupTimeSig:mean 	5.0428571428571
scalar Network.dyn_peer[9984] 	lookupStabilitySig:mean 	0.993819899724
scalar Network.dyn_peer[9984] 	lookupHopsSig:mean 	49.571428571429
scalar Network.dyn_peer[9985] 	lookupTimeSig:mean 	3.9571428571429
scalar Network.dyn_peer[9985] 	lookupStabilitySig:mean 	0.99500948696264
scalar Network.dyn_peer[9985] 	lookupHopsSig:mean 	38.714285714286
scalar Network.dyn_peer[9986] 	lookupTimeSig:mean 	7.5875
scalar Network.dyn_peer[9986] 	lookupStabilitySig:mean 	0.99149068100087
scalar Network.dyn_peer[9986] 	lookupHopsSig:mean 	75
scalar Network.dyn_peer[9987] 	lookupTimeSig:mean 	3.9875
scalar Network.dyn_peer[9987] 	lookupStabilitySig:mean 	0.99507681188697
scalar Network.dyn_peer[9987] 	lookupHopsSig:mean 	39
scalar Network.dyn_peer[9988] 	lookupTimeSig:mean 	2.8636363636364
scalar Network.dyn_peer[9988] 	lookupStabilitySig:mean 	0.99647438803434
scalar Network.dyn_peer[9988] 	lookupHopsSig:mean 	27.727272727273
scalar Network.dyn_peer[9989] 	lookupTimeSig:mean 	4.0333333333333
scalar Network.dyn_peer[9989] 	lookupStabilitySig:mean 	0.99449224265603
scalar Network.dyn_peer[9989] 	lookupHopsSig:mean 	39.666666666667
scalar Network.dyn_peer[9990] 	lookupTimeSig:mean 	6.7555555555556
scalar Network.dyn_peer[9990] 	lookupStabilitySig:mean 	0.99232662295819
scalar Network.dyn_peer[9990] 	lookupHopsSig:mean 	66.666666666667
scalar Network.dyn_peer[9991] 	lookupTimeSig:mean 	4.6384615384615
scalar Network.dyn_peer[9991] 	lookupStabilitySig:mean 	0.99473720327772
scalar Network.dyn_peer[9991] 	lookupHopsSig:mean 	45.461538461538
scalar Network.dyn_peer[9992] 	lookupTimeSig:mean 	5.3071428571429
scalar Network.dyn_peer[9992] 	lookupStabilitySig:mean 	0.99410941280699
scalar Network.dyn_peer[9992] 	lookupHopsSig:mean 	52.142857142857
scalar Network.dyn_peer[9993] 	lookupTimeSig:mean 	6.4
scalar Network.dyn_peer[9993] 	lookupStabilitySig:mean 	0.99268327073918
scalar Network.dyn_peer[9993] 	lookupHopsSig:mean 	63.111111111111
scalar Network.dyn_peer[9994] 	lookupTimeSig:mean 	5.9714285714286
scalar Network.dyn_peer[9994] 	lookupStabilitySig:mean 	0.9928976619849
scalar Network.dyn_peer[9994] 	lookupHopsSig:mean 	58.857142857143
scalar Network.dyn_peer[9995] 	lookupTimeSig:mean 	6.3333333333333
scalar Network.dyn_peer[9995] 	lookupStabilitySig:mean 	0.99169257966181
scalar Network.dyn_peer[9995] 	lookupHopsSig:mean 	62.666666666667
scalar Network.dyn_peer[9996] 	lookupTimeSig:mean 	7.25
scalar Network.dyn_peer[9996] 	lookupStabilitySig:mean 	0.99028242146596
scalar Network.dyn_peer[9996] 	lookupHopsSig:mean 	72
scalar Network.dyn_peer[9997] 	lookupTimeSig:mean 	3.9333333333333
scalar Network.dyn_peer[9997] 	lookupStabilitySig:mean 	0.99465456604958
scalar Network.dyn_peer[9997] 	lookupHopsSig:mean 	38.666666666667
scalar Network.dyn_peer[9998] 	lookupTimeSig:mean 	5.0272727272727
scalar Network.dyn_peer[9998] 	lookupStabilitySig:mean 	0.99422879070467
scalar Network.dyn_peer[9998] 	lookupHopsSig:mean 	49.363636363636
scalar Network.dyn_peer[9999] 	lookupTimeSig:mean 	7.2666666666667
scalar Network.dyn_peer[9999] 	lookupStabilitySig:mean 	0.99068755966922
scalar Network.dyn_peer[9999] 	lookupHopsSig:mean 	72
scalar Network.churner 	inGoingSizeSig:mean 	2045.5327467253
