version 2
run Stability2-102-20130528-02:02:13-24168
attr configname Stability2
attr datetime 20130528-02:02:13
attr experiment Stability2
attr inifile omnetpp.ini
attr iterationvars $0=1000
attr iterationvars2 "$0=1000, $repetition=2"
attr measurement $0=1000
attr network Network
attr processid 24168
attr repetition 2
attr replication #2
attr resultdir results
attr runnumber 102
attr seedset 102

scalar Network.dyn_peer[0] 	lookupTimeSig:mean 	2.7904761904762
scalar Network.dyn_peer[0] 	lookupStabilitySig:mean 	0.86325777234049
scalar Network.dyn_peer[0] 	lookupHopsSig:mean 	26.952380952381
scalar Network.dyn_peer[1] 	lookupTimeSig:mean 	3.9217391304348
scalar Network.dyn_peer[1] 	lookupStabilitySig:mean 	0.87896642687164
scalar Network.dyn_peer[1] 	lookupHopsSig:mean 	38.260869565217
scalar Network.dyn_peer[2] 	lookupTimeSig:mean 	3.4529411764706
scalar Network.dyn_peer[2] 	lookupStabilitySig:mean 	0.88457367829773
scalar Network.dyn_peer[2] 	lookupHopsSig:mean 	33.588235294118
scalar Network.dyn_peer[3] 	lookupTimeSig:mean 	3.0315789473684
scalar Network.dyn_peer[3] 	lookupStabilitySig:mean 	0.90195856142887
scalar Network.dyn_peer[3] 	lookupHopsSig:mean 	29.368421052632
scalar Network.dyn_peer[4] 	lookupTimeSig:mean 	2.6538461538462
scalar Network.dyn_peer[4] 	lookupStabilitySig:mean 	0.8978678554189
scalar Network.dyn_peer[4] 	lookupHopsSig:mean 	25.576923076923
scalar Network.dyn_peer[5] 	lookupTimeSig:mean 	2.9125
scalar Network.dyn_peer[5] 	lookupStabilitySig:mean 	0.83786953911476
scalar Network.dyn_peer[5] 	lookupHopsSig:mean 	28.1875
scalar Network.dyn_peer[6] 	lookupTimeSig:mean 	2.9421052631579
scalar Network.dyn_peer[6] 	lookupStabilitySig:mean 	0.89783054917414
scalar Network.dyn_peer[6] 	lookupHopsSig:mean 	28.473684210526
scalar Network.dyn_peer[7] 	lookupTimeSig:mean 	3.0941176470588
scalar Network.dyn_peer[7] 	lookupStabilitySig:mean 	0.84541554905488
scalar Network.dyn_peer[7] 	lookupHopsSig:mean 	30
scalar Network.dyn_peer[8] 	lookupTimeSig:mean 	2.3384615384615
scalar Network.dyn_peer[8] 	lookupStabilitySig:mean 	0.82053167122201
scalar Network.dyn_peer[8] 	lookupHopsSig:mean 	22.461538461538
scalar Network.dyn_peer[9] 	lookupTimeSig:mean 	3.8928571428571
scalar Network.dyn_peer[9] 	lookupStabilitySig:mean 	0.8323643989861
scalar Network.dyn_peer[9] 	lookupHopsSig:mean 	38
scalar Network.dyn_peer[10] 	lookupTimeSig:mean 	3.0315789473684
scalar Network.dyn_peer[10] 	lookupStabilitySig:mean 	0.86555006908939
scalar Network.dyn_peer[10] 	lookupHopsSig:mean 	29.368421052632
scalar Network.dyn_peer[11] 	lookupTimeSig:mean 	3.0125
scalar Network.dyn_peer[11] 	lookupStabilitySig:mean 	0.88561645233131
scalar Network.dyn_peer[11] 	lookupHopsSig:mean 	29.1875
scalar Network.dyn_peer[12] 	lookupTimeSig:mean 	2.3733333333333
scalar Network.dyn_peer[12] 	lookupStabilitySig:mean 	0.89366561979211
scalar Network.dyn_peer[12] 	lookupHopsSig:mean 	22.8
scalar Network.dyn_peer[13] 	lookupTimeSig:mean 	2.985
scalar Network.dyn_peer[13] 	lookupStabilitySig:mean 	0.875326365605
scalar Network.dyn_peer[13] 	lookupHopsSig:mean 	28.9
scalar Network.dyn_peer[14] 	lookupTimeSig:mean 	4.2277777777778
scalar Network.dyn_peer[14] 	lookupStabilitySig:mean 	0.84925309547948
scalar Network.dyn_peer[14] 	lookupHopsSig:mean 	41.333333333333
scalar Network.dyn_peer[15] 	lookupTimeSig:mean 	3.3611111111111
scalar Network.dyn_peer[15] 	lookupStabilitySig:mean 	0.83865921256236
scalar Network.dyn_peer[15] 	lookupHopsSig:mean 	32.666666666667
scalar Network.dyn_peer[16] 	lookupTimeSig:mean 	2.9375
scalar Network.dyn_peer[16] 	lookupStabilitySig:mean 	0.86133069440257
scalar Network.dyn_peer[16] 	lookupHopsSig:mean 	28.4375
scalar Network.dyn_peer[17] 	lookupTimeSig:mean 	2.1
scalar Network.dyn_peer[17] 	lookupStabilitySig:mean 	0.82947093216769
scalar Network.dyn_peer[17] 	lookupHopsSig:mean 	20.071428571429
scalar Network.dyn_peer[18] 	lookupTimeSig:mean 	3.8526315789474
scalar Network.dyn_peer[18] 	lookupStabilitySig:mean 	0.89468721704754
scalar Network.dyn_peer[18] 	lookupHopsSig:mean 	37.578947368421
scalar Network.dyn_peer[19] 	lookupTimeSig:mean 	1.8307692307692
scalar Network.dyn_peer[19] 	lookupStabilitySig:mean 	0.79353450220795
scalar Network.dyn_peer[19] 	lookupHopsSig:mean 	17.384615384615
scalar Network.dyn_peer[20] 	lookupTimeSig:mean 	3.1789473684211
scalar Network.dyn_peer[20] 	lookupStabilitySig:mean 	0.88834827013412
scalar Network.dyn_peer[20] 	lookupHopsSig:mean 	30.842105263158
scalar Network.dyn_peer[21] 	lookupTimeSig:mean 	2.8833333333333
scalar Network.dyn_peer[21] 	lookupStabilitySig:mean 	0.82836135383695
scalar Network.dyn_peer[21] 	lookupHopsSig:mean 	27.916666666667
scalar Network.dyn_peer[22] 	lookupTimeSig:mean 	2.86
scalar Network.dyn_peer[22] 	lookupStabilitySig:mean 	0.84497605711222
scalar Network.dyn_peer[22] 	lookupHopsSig:mean 	27.666666666667
scalar Network.dyn_peer[23] 	lookupTimeSig:mean 	2.3777777777778
scalar Network.dyn_peer[23] 	lookupStabilitySig:mean 	0.85952186270475
scalar Network.dyn_peer[23] 	lookupHopsSig:mean 	22.833333333333
scalar Network.dyn_peer[24] 	lookupTimeSig:mean 	3.4066666666667
scalar Network.dyn_peer[24] 	lookupStabilitySig:mean 	0.84933030446991
scalar Network.dyn_peer[24] 	lookupHopsSig:mean 	33.133333333333
scalar Network.dyn_peer[25] 	lookupTimeSig:mean 	3.7117647058824
scalar Network.dyn_peer[25] 	lookupStabilitySig:mean 	0.85329675507348
scalar Network.dyn_peer[25] 	lookupHopsSig:mean 	36.176470588235
scalar Network.dyn_peer[26] 	lookupTimeSig:mean 	2
scalar Network.dyn_peer[26] 	lookupStabilitySig:mean 	0.87064742193454
scalar Network.dyn_peer[26] 	lookupHopsSig:mean 	19.055555555556
scalar Network.dyn_peer[27] 	lookupTimeSig:mean 	3.3058823529412
scalar Network.dyn_peer[27] 	lookupStabilitySig:mean 	0.87261646061533
scalar Network.dyn_peer[27] 	lookupHopsSig:mean 	32.117647058824
scalar Network.dyn_peer[28] 	lookupTimeSig:mean 	3.9266666666667
scalar Network.dyn_peer[28] 	lookupStabilitySig:mean 	0.91137535866971
scalar Network.dyn_peer[28] 	lookupHopsSig:mean 	38.333333333333
scalar Network.dyn_peer[29] 	lookupTimeSig:mean 	4.2705882352941
scalar Network.dyn_peer[29] 	lookupStabilitySig:mean 	0.88450311728315
scalar Network.dyn_peer[29] 	lookupHopsSig:mean 	41.764705882353
scalar Network.dyn_peer[30] 	lookupTimeSig:mean 	2.625
scalar Network.dyn_peer[30] 	lookupStabilitySig:mean 	0.88416602998041
scalar Network.dyn_peer[30] 	lookupHopsSig:mean 	25.3
scalar Network.dyn_peer[31] 	lookupTimeSig:mean 	3.3615384615385
scalar Network.dyn_peer[31] 	lookupStabilitySig:mean 	0.9086689328542
scalar Network.dyn_peer[31] 	lookupHopsSig:mean 	32.653846153846
scalar Network.dyn_peer[32] 	lookupTimeSig:mean 	3.0833333333333
scalar Network.dyn_peer[32] 	lookupStabilitySig:mean 	0.91078734554402
scalar Network.dyn_peer[32] 	lookupHopsSig:mean 	29.888888888889
scalar Network.dyn_peer[33] 	lookupTimeSig:mean 	1.9
scalar Network.dyn_peer[33] 	lookupStabilitySig:mean 	0.89976109379495
scalar Network.dyn_peer[33] 	lookupHopsSig:mean 	18.05
scalar Network.dyn_peer[34] 	lookupTimeSig:mean 	2.7055555555556
scalar Network.dyn_peer[34] 	lookupStabilitySig:mean 	0.88441350533523
scalar Network.dyn_peer[34] 	lookupHopsSig:mean 	26.111111111111
scalar Network.dyn_peer[35] 	lookupTimeSig:mean 	3.7294117647059
scalar Network.dyn_peer[35] 	lookupStabilitySig:mean 	0.85187123947339
scalar Network.dyn_peer[35] 	lookupHopsSig:mean 	36.352941176471
scalar Network.dyn_peer[36] 	lookupTimeSig:mean 	3.5380952380952
scalar Network.dyn_peer[36] 	lookupStabilitySig:mean 	0.89089662526246
scalar Network.dyn_peer[36] 	lookupHopsSig:mean 	34.428571428571
scalar Network.dyn_peer[37] 	lookupTimeSig:mean 	3.1277777777778
scalar Network.dyn_peer[37] 	lookupStabilitySig:mean 	0.91687533717292
scalar Network.dyn_peer[37] 	lookupHopsSig:mean 	30.333333333333
scalar Network.dyn_peer[38] 	lookupTimeSig:mean 	2.6647058823529
scalar Network.dyn_peer[38] 	lookupStabilitySig:mean 	0.87514160970664
scalar Network.dyn_peer[38] 	lookupHopsSig:mean 	25.705882352941
scalar Network.dyn_peer[39] 	lookupTimeSig:mean 	2.5222222222222
scalar Network.dyn_peer[39] 	lookupStabilitySig:mean 	0.90727687453316
scalar Network.dyn_peer[39] 	lookupHopsSig:mean 	24.259259259259
scalar Network.dyn_peer[40] 	lookupTimeSig:mean 	2.7217391304348
scalar Network.dyn_peer[40] 	lookupStabilitySig:mean 	0.90028597752098
scalar Network.dyn_peer[40] 	lookupHopsSig:mean 	26.260869565217
scalar Network.dyn_peer[41] 	lookupTimeSig:mean 	3.3241379310345
scalar Network.dyn_peer[41] 	lookupStabilitySig:mean 	0.91530656209216
scalar Network.dyn_peer[41] 	lookupHopsSig:mean 	32.275862068966
scalar Network.dyn_peer[42] 	lookupTimeSig:mean 	2.64
scalar Network.dyn_peer[42] 	lookupStabilitySig:mean 	0.9216090253205
scalar Network.dyn_peer[42] 	lookupHopsSig:mean 	25.45
scalar Network.dyn_peer[43] 	lookupTimeSig:mean 	3.2545454545455
scalar Network.dyn_peer[43] 	lookupStabilitySig:mean 	0.9242593924388
scalar Network.dyn_peer[43] 	lookupHopsSig:mean 	31.590909090909
scalar Network.dyn_peer[44] 	lookupTimeSig:mean 	2.6411764705882
scalar Network.dyn_peer[44] 	lookupStabilitySig:mean 	0.87586517865523
scalar Network.dyn_peer[44] 	lookupHopsSig:mean 	25.470588235294
scalar Network.dyn_peer[45] 	lookupTimeSig:mean 	3.5
scalar Network.dyn_peer[45] 	lookupStabilitySig:mean 	0.88503622157233
scalar Network.dyn_peer[45] 	lookupHopsSig:mean 	34.047619047619
scalar Network.dyn_peer[46] 	lookupTimeSig:mean 	3.6692307692308
scalar Network.dyn_peer[46] 	lookupStabilitySig:mean 	0.8314097647985
scalar Network.dyn_peer[46] 	lookupHopsSig:mean 	35.769230769231
scalar Network.dyn_peer[47] 	lookupTimeSig:mean 	3.0722222222222
scalar Network.dyn_peer[47] 	lookupStabilitySig:mean 	0.90722440193511
scalar Network.dyn_peer[47] 	lookupHopsSig:mean 	29.777777777778
scalar Network.dyn_peer[48] 	lookupTimeSig:mean 	2.7590909090909
scalar Network.dyn_peer[48] 	lookupStabilitySig:mean 	0.91605143631155
scalar Network.dyn_peer[48] 	lookupHopsSig:mean 	26.636363636364
scalar Network.dyn_peer[49] 	lookupTimeSig:mean 	3.925
scalar Network.dyn_peer[49] 	lookupStabilitySig:mean 	0.90229580315063
scalar Network.dyn_peer[49] 	lookupHopsSig:mean 	38.3
scalar Network.dyn_peer[50] 	lookupTimeSig:mean 	3.3166666666667
scalar Network.dyn_peer[50] 	lookupStabilitySig:mean 	0.86019851570018
scalar Network.dyn_peer[50] 	lookupHopsSig:mean 	32.25
scalar Network.dyn_peer[51] 	lookupTimeSig:mean 	3.5
scalar Network.dyn_peer[51] 	lookupStabilitySig:mean 	0.90687144354588
scalar Network.dyn_peer[51] 	lookupHopsSig:mean 	34.058823529412
scalar Network.dyn_peer[52] 	lookupTimeSig:mean 	3.1208333333333
scalar Network.dyn_peer[52] 	lookupStabilitySig:mean 	0.9240419870257
scalar Network.dyn_peer[52] 	lookupHopsSig:mean 	30.25
scalar Network.dyn_peer[53] 	lookupTimeSig:mean 	2.225
scalar Network.dyn_peer[53] 	lookupStabilitySig:mean 	0.87149096239591
scalar Network.dyn_peer[53] 	lookupHopsSig:mean 	21.3125
scalar Network.dyn_peer[54] 	lookupTimeSig:mean 	3.3925925925926
scalar Network.dyn_peer[54] 	lookupStabilitySig:mean 	0.93111797709328
scalar Network.dyn_peer[54] 	lookupHopsSig:mean 	32.962962962963
scalar Network.dyn_peer[55] 	lookupTimeSig:mean 	3.5173913043478
scalar Network.dyn_peer[55] 	lookupStabilitySig:mean 	0.94437325824022
scalar Network.dyn_peer[55] 	lookupHopsSig:mean 	34.217391304348
scalar Network.dyn_peer[56] 	lookupTimeSig:mean 	2.9833333333333
scalar Network.dyn_peer[56] 	lookupStabilitySig:mean 	0.84254382518702
scalar Network.dyn_peer[56] 	lookupHopsSig:mean 	28.916666666667
scalar Network.dyn_peer[57] 	lookupTimeSig:mean 	3.0535714285714
scalar Network.dyn_peer[57] 	lookupStabilitySig:mean 	0.93256841165463
scalar Network.dyn_peer[57] 	lookupHopsSig:mean 	29.571428571429
scalar Network.dyn_peer[58] 	lookupTimeSig:mean 	3.2846153846154
scalar Network.dyn_peer[58] 	lookupStabilitySig:mean 	0.96993520839785
scalar Network.dyn_peer[58] 	lookupHopsSig:mean 	31.884615384615
scalar Network.dyn_peer[59] 	lookupTimeSig:mean 	2.1555555555556
scalar Network.dyn_peer[59] 	lookupStabilitySig:mean 	0.94207931834778
scalar Network.dyn_peer[59] 	lookupHopsSig:mean 	20.611111111111
scalar Network.dyn_peer[60] 	lookupTimeSig:mean 	3.0074074074074
scalar Network.dyn_peer[60] 	lookupStabilitySig:mean 	0.93590357392612
scalar Network.dyn_peer[60] 	lookupHopsSig:mean 	29.111111111111
scalar Network.dyn_peer[61] 	lookupTimeSig:mean 	2.4263157894737
scalar Network.dyn_peer[61] 	lookupStabilitySig:mean 	0.89416305284555
scalar Network.dyn_peer[61] 	lookupHopsSig:mean 	23.315789473684
scalar Network.dyn_peer[62] 	lookupTimeSig:mean 	1.7785714285714
scalar Network.dyn_peer[62] 	lookupStabilitySig:mean 	0.87188341889331
scalar Network.dyn_peer[62] 	lookupHopsSig:mean 	16.857142857143
scalar Network.dyn_peer[63] 	lookupTimeSig:mean 	3.9615384615385
scalar Network.dyn_peer[63] 	lookupStabilitySig:mean 	0.8433425215861
scalar Network.dyn_peer[63] 	lookupHopsSig:mean 	38.692307692308
scalar Network.dyn_peer[64] 	lookupTimeSig:mean 	3.2166666666667
scalar Network.dyn_peer[64] 	lookupStabilitySig:mean 	0.87787051647643
scalar Network.dyn_peer[64] 	lookupHopsSig:mean 	31.222222222222
scalar Network.dyn_peer[65] 	lookupTimeSig:mean 	4.2666666666667
scalar Network.dyn_peer[65] 	lookupStabilitySig:mean 	0.88833496660615
scalar Network.dyn_peer[65] 	lookupHopsSig:mean 	41.733333333333
scalar Network.dyn_peer[66] 	lookupTimeSig:mean 	4.4380952380952
scalar Network.dyn_peer[66] 	lookupStabilitySig:mean 	0.93796553245435
scalar Network.dyn_peer[66] 	lookupHopsSig:mean 	43.428571428571
scalar Network.dyn_peer[67] 	lookupTimeSig:mean 	2.31
scalar Network.dyn_peer[67] 	lookupStabilitySig:mean 	0.84228457752615
scalar Network.dyn_peer[67] 	lookupHopsSig:mean 	22.2
scalar Network.dyn_peer[68] 	lookupTimeSig:mean 	3.52
scalar Network.dyn_peer[68] 	lookupStabilitySig:mean 	0.89443479062368
scalar Network.dyn_peer[68] 	lookupHopsSig:mean 	34.266666666667
scalar Network.dyn_peer[69] 	lookupTimeSig:mean 	3.3866666666667
scalar Network.dyn_peer[69] 	lookupStabilitySig:mean 	0.91464700655391
scalar Network.dyn_peer[69] 	lookupHopsSig:mean 	32.933333333333
scalar Network.dyn_peer[70] 	lookupTimeSig:mean 	3.0038461538462
scalar Network.dyn_peer[70] 	lookupStabilitySig:mean 	0.92407788028224
scalar Network.dyn_peer[70] 	lookupHopsSig:mean 	29.076923076923
scalar Network.dyn_peer[71] 	lookupTimeSig:mean 	2.76875
scalar Network.dyn_peer[71] 	lookupStabilitySig:mean 	0.89471449269331
scalar Network.dyn_peer[71] 	lookupHopsSig:mean 	26.75
scalar Network.dyn_peer[72] 	lookupTimeSig:mean 	2.772
scalar Network.dyn_peer[72] 	lookupStabilitySig:mean 	0.90984210990369
scalar Network.dyn_peer[72] 	lookupHopsSig:mean 	26.76
scalar Network.dyn_peer[73] 	lookupTimeSig:mean 	3.0727272727273
scalar Network.dyn_peer[73] 	lookupStabilitySig:mean 	0.94088443571871
scalar Network.dyn_peer[73] 	lookupHopsSig:mean 	29.772727272727
scalar Network.dyn_peer[74] 	lookupTimeSig:mean 	3.7642857142857
scalar Network.dyn_peer[74] 	lookupStabilitySig:mean 	0.93509627562681
scalar Network.dyn_peer[74] 	lookupHopsSig:mean 	36.678571428571
scalar Network.dyn_peer[75] 	lookupTimeSig:mean 	2.89375
scalar Network.dyn_peer[75] 	lookupStabilitySig:mean 	0.8858357234858
scalar Network.dyn_peer[75] 	lookupHopsSig:mean 	28
scalar Network.dyn_peer[76] 	lookupTimeSig:mean 	4.0913043478261
scalar Network.dyn_peer[76] 	lookupStabilitySig:mean 	0.93090236898633
scalar Network.dyn_peer[76] 	lookupHopsSig:mean 	39.95652173913
scalar Network.dyn_peer[77] 	lookupTimeSig:mean 	3.6
scalar Network.dyn_peer[77] 	lookupStabilitySig:mean 	0.92954911575898
scalar Network.dyn_peer[77] 	lookupHopsSig:mean 	35.052631578947
scalar Network.dyn_peer[78] 	lookupTimeSig:mean 	3.0166666666667
scalar Network.dyn_peer[78] 	lookupStabilitySig:mean 	0.94157887367328
scalar Network.dyn_peer[78] 	lookupHopsSig:mean 	29.208333333333
scalar Network.dyn_peer[79] 	lookupTimeSig:mean 	2.6722222222222
scalar Network.dyn_peer[79] 	lookupStabilitySig:mean 	0.92513772981086
scalar Network.dyn_peer[79] 	lookupHopsSig:mean 	25.777777777778
scalar Network.dyn_peer[80] 	lookupTimeSig:mean 	3.6625
scalar Network.dyn_peer[80] 	lookupStabilitySig:mean 	0.91446320081013
scalar Network.dyn_peer[80] 	lookupHopsSig:mean 	35.6875
scalar Network.dyn_peer[81] 	lookupTimeSig:mean 	3.3722222222222
scalar Network.dyn_peer[81] 	lookupStabilitySig:mean 	0.91915905485964
scalar Network.dyn_peer[81] 	lookupHopsSig:mean 	32.777777777778
scalar Network.dyn_peer[82] 	lookupTimeSig:mean 	3.225
scalar Network.dyn_peer[82] 	lookupStabilitySig:mean 	0.91697313007899
scalar Network.dyn_peer[82] 	lookupHopsSig:mean 	31.375
scalar Network.dyn_peer[83] 	lookupTimeSig:mean 	2.8642857142857
scalar Network.dyn_peer[83] 	lookupStabilitySig:mean 	0.93147895330289
scalar Network.dyn_peer[83] 	lookupHopsSig:mean 	27.678571428571
scalar Network.dyn_peer[84] 	lookupTimeSig:mean 	2.6041666666667
scalar Network.dyn_peer[84] 	lookupStabilitySig:mean 	0.9495627943179
scalar Network.dyn_peer[84] 	lookupHopsSig:mean 	25.083333333333
scalar Network.dyn_peer[85] 	lookupTimeSig:mean 	3.4944444444444
scalar Network.dyn_peer[85] 	lookupStabilitySig:mean 	0.9438930135867
scalar Network.dyn_peer[85] 	lookupHopsSig:mean 	34
scalar Network.dyn_peer[86] 	lookupTimeSig:mean 	3.445
scalar Network.dyn_peer[86] 	lookupStabilitySig:mean 	0.92009059883421
scalar Network.dyn_peer[86] 	lookupHopsSig:mean 	33.5
scalar Network.dyn_peer[87] 	lookupTimeSig:mean 	3
scalar Network.dyn_peer[87] 	lookupStabilitySig:mean 	0.92650715869082
scalar Network.dyn_peer[87] 	lookupHopsSig:mean 	29.04347826087
scalar Network.dyn_peer[88] 	lookupTimeSig:mean 	3.45
scalar Network.dyn_peer[88] 	lookupStabilitySig:mean 	0.91675515498759
scalar Network.dyn_peer[88] 	lookupHopsSig:mean 	33.555555555556
scalar Network.dyn_peer[89] 	lookupTimeSig:mean 	2.6125
scalar Network.dyn_peer[89] 	lookupStabilitySig:mean 	0.94018424740837
scalar Network.dyn_peer[89] 	lookupHopsSig:mean 	25.166666666667
scalar Network.dyn_peer[90] 	lookupTimeSig:mean 	2.16
scalar Network.dyn_peer[90] 	lookupStabilitySig:mean 	0.91761082010344
scalar Network.dyn_peer[90] 	lookupHopsSig:mean 	20.65
scalar Network.dyn_peer[91] 	lookupTimeSig:mean 	4.0210526315789
scalar Network.dyn_peer[91] 	lookupStabilitySig:mean 	0.94447813567853
scalar Network.dyn_peer[91] 	lookupHopsSig:mean 	39.263157894737
scalar Network.dyn_peer[92] 	lookupTimeSig:mean 	3.8631578947368
scalar Network.dyn_peer[92] 	lookupStabilitySig:mean 	0.92886049089353
scalar Network.dyn_peer[92] 	lookupHopsSig:mean 	37.684210526316
scalar Network.dyn_peer[93] 	lookupTimeSig:mean 	2.0125
scalar Network.dyn_peer[93] 	lookupStabilitySig:mean 	0.94469550276699
scalar Network.dyn_peer[93] 	lookupHopsSig:mean 	19.1875
scalar Network.dyn_peer[94] 	lookupTimeSig:mean 	3.3117647058824
scalar Network.dyn_peer[94] 	lookupStabilitySig:mean 	0.96029956562801
scalar Network.dyn_peer[94] 	lookupHopsSig:mean 	32.147058823529
scalar Network.dyn_peer[95] 	lookupTimeSig:mean 	3.1619047619048
scalar Network.dyn_peer[95] 	lookupStabilitySig:mean 	0.93663932568216
scalar Network.dyn_peer[95] 	lookupHopsSig:mean 	30.666666666667
scalar Network.dyn_peer[96] 	lookupTimeSig:mean 	2.6473684210526
scalar Network.dyn_peer[96] 	lookupStabilitySig:mean 	0.93295133072197
scalar Network.dyn_peer[96] 	lookupHopsSig:mean 	25.526315789474
scalar Network.dyn_peer[97] 	lookupTimeSig:mean 	4.6181818181818
scalar Network.dyn_peer[97] 	lookupStabilitySig:mean 	0.91273266991431
scalar Network.dyn_peer[97] 	lookupHopsSig:mean 	45.272727272727
scalar Network.dyn_peer[98] 	lookupTimeSig:mean 	1.9769230769231
scalar Network.dyn_peer[98] 	lookupStabilitySig:mean 	0.92282807490287
scalar Network.dyn_peer[98] 	lookupHopsSig:mean 	18.846153846154
scalar Network.dyn_peer[99] 	lookupTimeSig:mean 	3.2666666666667
scalar Network.dyn_peer[99] 	lookupStabilitySig:mean 	0.9431908974355
scalar Network.dyn_peer[99] 	lookupHopsSig:mean 	31.703703703704
scalar Network.dyn_peer[100] 	lookupTimeSig:mean 	2.9260869565217
scalar Network.dyn_peer[100] 	lookupStabilitySig:mean 	0.92562525757872
scalar Network.dyn_peer[100] 	lookupHopsSig:mean 	28.304347826087
scalar Network.dyn_peer[101] 	lookupTimeSig:mean 	2.1461538461538
scalar Network.dyn_peer[101] 	lookupStabilitySig:mean 	0.92690256173508
scalar Network.dyn_peer[101] 	lookupHopsSig:mean 	20.538461538462
scalar Network.dyn_peer[102] 	lookupTimeSig:mean 	2.3777777777778
scalar Network.dyn_peer[102] 	lookupStabilitySig:mean 	0.94634878760553
scalar Network.dyn_peer[102] 	lookupHopsSig:mean 	22.833333333333
scalar Network.dyn_peer[103] 	lookupTimeSig:mean 	3.03125
scalar Network.dyn_peer[103] 	lookupStabilitySig:mean 	0.92821635468863
scalar Network.dyn_peer[103] 	lookupHopsSig:mean 	29.375
scalar Network.dyn_peer[104] 	lookupTimeSig:mean 	2.5884615384615
scalar Network.dyn_peer[104] 	lookupStabilitySig:mean 	0.94050525720769
scalar Network.dyn_peer[104] 	lookupHopsSig:mean 	24.923076923077
scalar Network.dyn_peer[105] 	lookupTimeSig:mean 	4.2380952380952
scalar Network.dyn_peer[105] 	lookupStabilitySig:mean 	0.92723858417455
scalar Network.dyn_peer[105] 	lookupHopsSig:mean 	41.428571428571
scalar Network.dyn_peer[106] 	lookupTimeSig:mean 	2.41
scalar Network.dyn_peer[106] 	lookupStabilitySig:mean 	0.93362056057667
scalar Network.dyn_peer[106] 	lookupHopsSig:mean 	23.15
scalar Network.dyn_peer[107] 	lookupTimeSig:mean 	2.98
scalar Network.dyn_peer[107] 	lookupStabilitySig:mean 	0.93278031986207
scalar Network.dyn_peer[107] 	lookupHopsSig:mean 	28.84
scalar Network.dyn_peer[108] 	lookupTimeSig:mean 	3.095652173913
scalar Network.dyn_peer[108] 	lookupStabilitySig:mean 	0.95769259664635
scalar Network.dyn_peer[108] 	lookupHopsSig:mean 	30
scalar Network.dyn_peer[109] 	lookupTimeSig:mean 	2.2666666666667
scalar Network.dyn_peer[109] 	lookupStabilitySig:mean 	0.91979942045226
scalar Network.dyn_peer[109] 	lookupHopsSig:mean 	21.722222222222
scalar Network.dyn_peer[110] 	lookupTimeSig:mean 	3.428
scalar Network.dyn_peer[110] 	lookupStabilitySig:mean 	0.95544427392539
scalar Network.dyn_peer[110] 	lookupHopsSig:mean 	33.32
scalar Network.dyn_peer[111] 	lookupTimeSig:mean 	2.312
scalar Network.dyn_peer[111] 	lookupStabilitySig:mean 	0.9580793071026
scalar Network.dyn_peer[111] 	lookupHopsSig:mean 	22.16
scalar Network.dyn_peer[112] 	lookupTimeSig:mean 	4.0083333333333
scalar Network.dyn_peer[112] 	lookupStabilitySig:mean 	0.96381641926322
scalar Network.dyn_peer[112] 	lookupHopsSig:mean 	39.125
scalar Network.dyn_peer[113] 	lookupTimeSig:mean 	3.9481481481481
scalar Network.dyn_peer[113] 	lookupStabilitySig:mean 	0.96834601945658
scalar Network.dyn_peer[113] 	lookupHopsSig:mean 	38.518518518519
scalar Network.dyn_peer[114] 	lookupTimeSig:mean 	2.3
scalar Network.dyn_peer[114] 	lookupStabilitySig:mean 	0.94819579047984
scalar Network.dyn_peer[114] 	lookupHopsSig:mean 	22.052631578947
scalar Network.dyn_peer[115] 	lookupTimeSig:mean 	2.8416666666667
scalar Network.dyn_peer[115] 	lookupStabilitySig:mean 	0.91854811153219
scalar Network.dyn_peer[115] 	lookupHopsSig:mean 	27.5
scalar Network.dyn_peer[116] 	lookupTimeSig:mean 	3.8411764705882
scalar Network.dyn_peer[116] 	lookupStabilitySig:mean 	0.94712386545314
scalar Network.dyn_peer[116] 	lookupHopsSig:mean 	37.470588235294
scalar Network.dyn_peer[117] 	lookupTimeSig:mean 	3.5
scalar Network.dyn_peer[117] 	lookupStabilitySig:mean 	0.93352595272967
scalar Network.dyn_peer[117] 	lookupHopsSig:mean 	34.058823529412
scalar Network.dyn_peer[118] 	lookupTimeSig:mean 	3.5478260869565
scalar Network.dyn_peer[118] 	lookupStabilitySig:mean 	0.95974115034788
scalar Network.dyn_peer[118] 	lookupHopsSig:mean 	34.521739130435
scalar Network.dyn_peer[119] 	lookupTimeSig:mean 	2.7483870967742
scalar Network.dyn_peer[119] 	lookupStabilitySig:mean 	0.96737227908659
scalar Network.dyn_peer[119] 	lookupHopsSig:mean 	26.516129032258
scalar Network.dyn_peer[120] 	lookupTimeSig:mean 	2.1
scalar Network.dyn_peer[120] 	lookupStabilitySig:mean 	0.89238638225943
scalar Network.dyn_peer[120] 	lookupHopsSig:mean 	20.1
scalar Network.dyn_peer[121] 	lookupTimeSig:mean 	3.1037037037037
scalar Network.dyn_peer[121] 	lookupStabilitySig:mean 	0.94898709580647
scalar Network.dyn_peer[121] 	lookupHopsSig:mean 	30.074074074074
scalar Network.dyn_peer[122] 	lookupTimeSig:mean 	3.21875
scalar Network.dyn_peer[122] 	lookupStabilitySig:mean 	0.93439524072892
scalar Network.dyn_peer[122] 	lookupHopsSig:mean 	31.25
scalar Network.dyn_peer[123] 	lookupTimeSig:mean 	4.151724137931
scalar Network.dyn_peer[123] 	lookupStabilitySig:mean 	0.9658456364775
scalar Network.dyn_peer[123] 	lookupHopsSig:mean 	40.551724137931
scalar Network.dyn_peer[124] 	lookupTimeSig:mean 	3.1346153846154
scalar Network.dyn_peer[124] 	lookupStabilitySig:mean 	0.95923059055797
scalar Network.dyn_peer[124] 	lookupHopsSig:mean 	30.384615384615
scalar Network.dyn_peer[125] 	lookupTimeSig:mean 	4
scalar Network.dyn_peer[125] 	lookupStabilitySig:mean 	0.95354969683103
scalar Network.dyn_peer[125] 	lookupHopsSig:mean 	39.04347826087
scalar Network.dyn_peer[126] 	lookupTimeSig:mean 	3.3739130434783
scalar Network.dyn_peer[126] 	lookupStabilitySig:mean 	0.95115671758338
scalar Network.dyn_peer[126] 	lookupHopsSig:mean 	32.782608695652
scalar Network.dyn_peer[127] 	lookupTimeSig:mean 	3.7470588235294
scalar Network.dyn_peer[127] 	lookupStabilitySig:mean 	0.950409554849
scalar Network.dyn_peer[127] 	lookupHopsSig:mean 	36.529411764706
scalar Network.dyn_peer[128] 	lookupTimeSig:mean 	2.2821428571429
scalar Network.dyn_peer[128] 	lookupStabilitySig:mean 	0.95122500230354
scalar Network.dyn_peer[128] 	lookupHopsSig:mean 	21.857142857143
scalar Network.dyn_peer[129] 	lookupTimeSig:mean 	4.2
scalar Network.dyn_peer[129] 	lookupStabilitySig:mean 	0.9325630035717
scalar Network.dyn_peer[129] 	lookupHopsSig:mean 	41.1
scalar Network.dyn_peer[130] 	lookupTimeSig:mean 	4.4952380952381
scalar Network.dyn_peer[130] 	lookupStabilitySig:mean 	0.9501227042416
scalar Network.dyn_peer[130] 	lookupHopsSig:mean 	44
scalar Network.dyn_peer[131] 	lookupTimeSig:mean 	1.8764705882353
scalar Network.dyn_peer[131] 	lookupStabilitySig:mean 	0.94001262814409
scalar Network.dyn_peer[131] 	lookupHopsSig:mean 	17.823529411765
scalar Network.dyn_peer[132] 	lookupTimeSig:mean 	3.7222222222222
scalar Network.dyn_peer[132] 	lookupStabilitySig:mean 	0.95555758196861
scalar Network.dyn_peer[132] 	lookupHopsSig:mean 	36.277777777778
scalar Network.dyn_peer[133] 	lookupTimeSig:mean 	2.3947368421053
scalar Network.dyn_peer[133] 	lookupStabilitySig:mean 	0.95791579601294
scalar Network.dyn_peer[133] 	lookupHopsSig:mean 	23
scalar Network.dyn_peer[134] 	lookupTimeSig:mean 	3.3678571428571
scalar Network.dyn_peer[134] 	lookupStabilitySig:mean 	0.95484449576387
scalar Network.dyn_peer[134] 	lookupHopsSig:mean 	32.714285714286
scalar Network.dyn_peer[135] 	lookupTimeSig:mean 	3.9590909090909
scalar Network.dyn_peer[135] 	lookupStabilitySig:mean 	0.9629796601525
scalar Network.dyn_peer[135] 	lookupHopsSig:mean 	38.636363636364
scalar Network.dyn_peer[136] 	lookupTimeSig:mean 	3.0315789473684
scalar Network.dyn_peer[136] 	lookupStabilitySig:mean 	0.9476241594254
scalar Network.dyn_peer[136] 	lookupHopsSig:mean 	29.368421052632
scalar Network.dyn_peer[137] 	lookupTimeSig:mean 	3.8238095238095
scalar Network.dyn_peer[137] 	lookupStabilitySig:mean 	0.95341238757135
scalar Network.dyn_peer[137] 	lookupHopsSig:mean 	37.285714285714
scalar Network.dyn_peer[138] 	lookupTimeSig:mean 	4.125
scalar Network.dyn_peer[138] 	lookupStabilitySig:mean 	0.91526629050107
scalar Network.dyn_peer[138] 	lookupHopsSig:mean 	40.333333333333
scalar Network.dyn_peer[139] 	lookupTimeSig:mean 	2.4772727272727
scalar Network.dyn_peer[139] 	lookupStabilitySig:mean 	0.96527784200258
scalar Network.dyn_peer[139] 	lookupHopsSig:mean 	23.818181818182
scalar Network.dyn_peer[140] 	lookupTimeSig:mean 	2.875
scalar Network.dyn_peer[140] 	lookupStabilitySig:mean 	0.938135289005
scalar Network.dyn_peer[140] 	lookupHopsSig:mean 	27.8125
scalar Network.dyn_peer[141] 	lookupTimeSig:mean 	3.23
scalar Network.dyn_peer[141] 	lookupStabilitySig:mean 	0.94998053951931
scalar Network.dyn_peer[141] 	lookupHopsSig:mean 	31.35
scalar Network.dyn_peer[142] 	lookupTimeSig:mean 	2.615
scalar Network.dyn_peer[142] 	lookupStabilitySig:mean 	0.95113464517053
scalar Network.dyn_peer[142] 	lookupHopsSig:mean 	25.2
scalar Network.dyn_peer[143] 	lookupTimeSig:mean 	2.4157894736842
scalar Network.dyn_peer[143] 	lookupStabilitySig:mean 	0.96164237459092
scalar Network.dyn_peer[143] 	lookupHopsSig:mean 	23.210526315789
scalar Network.dyn_peer[144] 	lookupTimeSig:mean 	3.1761904761905
scalar Network.dyn_peer[144] 	lookupStabilitySig:mean 	0.94775593189877
scalar Network.dyn_peer[144] 	lookupHopsSig:mean 	30.809523809524
scalar Network.dyn_peer[145] 	lookupTimeSig:mean 	3.6346153846154
scalar Network.dyn_peer[145] 	lookupStabilitySig:mean 	0.9653527670128
scalar Network.dyn_peer[145] 	lookupHopsSig:mean 	35.384615384615
scalar Network.dyn_peer[146] 	lookupTimeSig:mean 	2.2136363636364
scalar Network.dyn_peer[146] 	lookupStabilitySig:mean 	0.9514261457106
scalar Network.dyn_peer[146] 	lookupHopsSig:mean 	21.181818181818
scalar Network.dyn_peer[147] 	lookupTimeSig:mean 	2.5
scalar Network.dyn_peer[147] 	lookupStabilitySig:mean 	0.95227000452578
scalar Network.dyn_peer[147] 	lookupHopsSig:mean 	24.066666666667
scalar Network.dyn_peer[148] 	lookupTimeSig:mean 	3.005
scalar Network.dyn_peer[148] 	lookupStabilitySig:mean 	0.94671626373893
scalar Network.dyn_peer[148] 	lookupHopsSig:mean 	29.1
scalar Network.dyn_peer[149] 	lookupTimeSig:mean 	3.5714285714286
scalar Network.dyn_peer[149] 	lookupStabilitySig:mean 	0.94051284762099
scalar Network.dyn_peer[149] 	lookupHopsSig:mean 	34.785714285714
scalar Network.dyn_peer[150] 	lookupTimeSig:mean 	3.3
scalar Network.dyn_peer[150] 	lookupStabilitySig:mean 	0.94835909078007
scalar Network.dyn_peer[150] 	lookupHopsSig:mean 	32.058823529412
scalar Network.dyn_peer[151] 	lookupTimeSig:mean 	3.7578947368421
scalar Network.dyn_peer[151] 	lookupStabilitySig:mean 	0.95916041350727
scalar Network.dyn_peer[151] 	lookupHopsSig:mean 	36.631578947368
scalar Network.dyn_peer[152] 	lookupTimeSig:mean 	3.185
scalar Network.dyn_peer[152] 	lookupStabilitySig:mean 	0.95759894463699
scalar Network.dyn_peer[152] 	lookupHopsSig:mean 	30.9
scalar Network.dyn_peer[153] 	lookupTimeSig:mean 	2.4782608695652
scalar Network.dyn_peer[153] 	lookupStabilitySig:mean 	0.95748163957614
scalar Network.dyn_peer[153] 	lookupHopsSig:mean 	23.826086956522
scalar Network.dyn_peer[154] 	lookupTimeSig:mean 	2.75625
scalar Network.dyn_peer[154] 	lookupStabilitySig:mean 	0.95210979352123
scalar Network.dyn_peer[154] 	lookupHopsSig:mean 	26.625
scalar Network.dyn_peer[155] 	lookupTimeSig:mean 	3.0473684210526
scalar Network.dyn_peer[155] 	lookupStabilitySig:mean 	0.94639197026232
scalar Network.dyn_peer[155] 	lookupHopsSig:mean 	29.526315789474
scalar Network.dyn_peer[156] 	lookupTimeSig:mean 	2.425
scalar Network.dyn_peer[156] 	lookupStabilitySig:mean 	0.94331788908069
scalar Network.dyn_peer[156] 	lookupHopsSig:mean 	23.333333333333
scalar Network.dyn_peer[157] 	lookupTimeSig:mean 	2.8157894736842
scalar Network.dyn_peer[157] 	lookupStabilitySig:mean 	0.97292296612163
scalar Network.dyn_peer[157] 	lookupHopsSig:mean 	27.184210526316
scalar Network.dyn_peer[158] 	lookupTimeSig:mean 	3.025
scalar Network.dyn_peer[158] 	lookupStabilitySig:mean 	0.962163762415
scalar Network.dyn_peer[158] 	lookupHopsSig:mean 	29.291666666667
scalar Network.dyn_peer[159] 	lookupTimeSig:mean 	3.0157894736842
scalar Network.dyn_peer[159] 	lookupStabilitySig:mean 	0.95937425943435
scalar Network.dyn_peer[159] 	lookupHopsSig:mean 	29.210526315789
scalar Network.dyn_peer[160] 	lookupTimeSig:mean 	2.3588235294118
scalar Network.dyn_peer[160] 	lookupStabilitySig:mean 	0.95934784497299
scalar Network.dyn_peer[160] 	lookupHopsSig:mean 	22.647058823529
scalar Network.dyn_peer[161] 	lookupTimeSig:mean 	4.0181818181818
scalar Network.dyn_peer[161] 	lookupStabilitySig:mean 	0.96018767117692
scalar Network.dyn_peer[161] 	lookupHopsSig:mean 	39.227272727273
scalar Network.dyn_peer[162] 	lookupTimeSig:mean 	2.3333333333333
scalar Network.dyn_peer[162] 	lookupStabilitySig:mean 	0.91244501822318
scalar Network.dyn_peer[162] 	lookupHopsSig:mean 	22.5
scalar Network.dyn_peer[163] 	lookupTimeSig:mean 	3.4565217391304
scalar Network.dyn_peer[163] 	lookupStabilitySig:mean 	0.95808953273556
scalar Network.dyn_peer[163] 	lookupHopsSig:mean 	33.608695652174
scalar Network.dyn_peer[164] 	lookupTimeSig:mean 	2.9863636363636
scalar Network.dyn_peer[164] 	lookupStabilitySig:mean 	0.96018657815346
scalar Network.dyn_peer[164] 	lookupHopsSig:mean 	28.909090909091
scalar Network.dyn_peer[165] 	lookupTimeSig:mean 	2.4545454545455
scalar Network.dyn_peer[165] 	lookupStabilitySig:mean 	0.9399088754488
scalar Network.dyn_peer[165] 	lookupHopsSig:mean 	23.636363636364
scalar Network.dyn_peer[166] 	lookupTimeSig:mean 	3.395
scalar Network.dyn_peer[166] 	lookupStabilitySig:mean 	0.95204089436447
scalar Network.dyn_peer[166] 	lookupHopsSig:mean 	33
scalar Network.dyn_peer[167] 	lookupTimeSig:mean 	3.95
scalar Network.dyn_peer[167] 	lookupStabilitySig:mean 	0.95987212563503
scalar Network.dyn_peer[167] 	lookupHopsSig:mean 	38.555555555556
scalar Network.dyn_peer[168] 	lookupTimeSig:mean 	2.91
scalar Network.dyn_peer[168] 	lookupStabilitySig:mean 	0.95745586202247
scalar Network.dyn_peer[168] 	lookupHopsSig:mean 	28.15
scalar Network.dyn_peer[169] 	lookupTimeSig:mean 	3.4928571428571
scalar Network.dyn_peer[169] 	lookupStabilitySig:mean 	0.97009566627094
scalar Network.dyn_peer[169] 	lookupHopsSig:mean 	33.964285714286
scalar Network.dyn_peer[170] 	lookupTimeSig:mean 	3.2227272727273
scalar Network.dyn_peer[170] 	lookupStabilitySig:mean 	0.95735629603521
scalar Network.dyn_peer[170] 	lookupHopsSig:mean 	31.272727272727
scalar Network.dyn_peer[171] 	lookupTimeSig:mean 	2.8161290322581
scalar Network.dyn_peer[171] 	lookupStabilitySig:mean 	0.96724560349098
scalar Network.dyn_peer[171] 	lookupHopsSig:mean 	27.193548387097
scalar Network.dyn_peer[172] 	lookupTimeSig:mean 	2.7782608695652
scalar Network.dyn_peer[172] 	lookupStabilitySig:mean 	0.95808036139478
scalar Network.dyn_peer[172] 	lookupHopsSig:mean 	26.826086956522
scalar Network.dyn_peer[173] 	lookupTimeSig:mean 	2.3142857142857
scalar Network.dyn_peer[173] 	lookupStabilitySig:mean 	0.94631590045589
scalar Network.dyn_peer[173] 	lookupHopsSig:mean 	22.214285714286
scalar Network.dyn_peer[174] 	lookupTimeSig:mean 	4.2352941176471
scalar Network.dyn_peer[174] 	lookupStabilitySig:mean 	0.96582779291031
scalar Network.dyn_peer[174] 	lookupHopsSig:mean 	41.411764705882
scalar Network.dyn_peer[175] 	lookupTimeSig:mean 	3.4
scalar Network.dyn_peer[175] 	lookupStabilitySig:mean 	0.97039003348808
scalar Network.dyn_peer[175] 	lookupHopsSig:mean 	33.04347826087
scalar Network.dyn_peer[176] 	lookupTimeSig:mean 	4.6
scalar Network.dyn_peer[176] 	lookupStabilitySig:mean 	0.95546386006141
scalar Network.dyn_peer[176] 	lookupHopsSig:mean 	45.052631578947
scalar Network.dyn_peer[177] 	lookupTimeSig:mean 	3.0466666666667
scalar Network.dyn_peer[177] 	lookupStabilitySig:mean 	0.95381729556248
scalar Network.dyn_peer[177] 	lookupHopsSig:mean 	29.533333333333
scalar Network.dyn_peer[178] 	lookupTimeSig:mean 	2.6
scalar Network.dyn_peer[178] 	lookupStabilitySig:mean 	0.96564456149936
scalar Network.dyn_peer[178] 	lookupHopsSig:mean 	25.066666666667
scalar Network.dyn_peer[179] 	lookupTimeSig:mean 	3.262962962963
scalar Network.dyn_peer[179] 	lookupStabilitySig:mean 	0.96734874373888
scalar Network.dyn_peer[179] 	lookupHopsSig:mean 	31.666666666667
scalar Network.dyn_peer[180] 	lookupTimeSig:mean 	2.9294117647059
scalar Network.dyn_peer[180] 	lookupStabilitySig:mean 	0.95110638921752
scalar Network.dyn_peer[180] 	lookupHopsSig:mean 	28.352941176471
scalar Network.dyn_peer[181] 	lookupTimeSig:mean 	2.2285714285714
scalar Network.dyn_peer[181] 	lookupStabilitySig:mean 	0.93690081845437
scalar Network.dyn_peer[181] 	lookupHopsSig:mean 	21.428571428571
scalar Network.dyn_peer[182] 	lookupTimeSig:mean 	3.775
scalar Network.dyn_peer[182] 	lookupStabilitySig:mean 	0.95586337009445
scalar Network.dyn_peer[182] 	lookupHopsSig:mean 	36.833333333333
scalar Network.dyn_peer[183] 	lookupTimeSig:mean 	3.0322580645161
scalar Network.dyn_peer[183] 	lookupStabilitySig:mean 	0.97670067194661
scalar Network.dyn_peer[183] 	lookupHopsSig:mean 	29.354838709677
scalar Network.dyn_peer[184] 	lookupTimeSig:mean 	3.53
scalar Network.dyn_peer[184] 	lookupStabilitySig:mean 	0.96382538388134
scalar Network.dyn_peer[184] 	lookupHopsSig:mean 	34.35
scalar Network.dyn_peer[185] 	lookupTimeSig:mean 	2.3333333333333
scalar Network.dyn_peer[185] 	lookupStabilitySig:mean 	0.96716780033672
scalar Network.dyn_peer[185] 	lookupHopsSig:mean 	22.380952380952
scalar Network.dyn_peer[186] 	lookupTimeSig:mean 	2.6411764705882
scalar Network.dyn_peer[186] 	lookupStabilitySig:mean 	0.9522698206334
scalar Network.dyn_peer[186] 	lookupHopsSig:mean 	25.470588235294
scalar Network.dyn_peer[187] 	lookupTimeSig:mean 	3.44
scalar Network.dyn_peer[187] 	lookupStabilitySig:mean 	0.96047559890896
scalar Network.dyn_peer[187] 	lookupHopsSig:mean 	33.44
scalar Network.dyn_peer[188] 	lookupTimeSig:mean 	3.0947368421053
scalar Network.dyn_peer[188] 	lookupStabilitySig:mean 	0.97011299532422
scalar Network.dyn_peer[188] 	lookupHopsSig:mean 	30
scalar Network.dyn_peer[189] 	lookupTimeSig:mean 	2.78
scalar Network.dyn_peer[189] 	lookupStabilitySig:mean 	0.95921331816353
scalar Network.dyn_peer[189] 	lookupHopsSig:mean 	26.85
scalar Network.dyn_peer[190] 	lookupTimeSig:mean 	3.4928571428571
scalar Network.dyn_peer[190] 	lookupStabilitySig:mean 	0.94844671678064
scalar Network.dyn_peer[190] 	lookupHopsSig:mean 	34
scalar Network.dyn_peer[191] 	lookupTimeSig:mean 	2.6333333333333
scalar Network.dyn_peer[191] 	lookupStabilitySig:mean 	0.9427570636229
scalar Network.dyn_peer[191] 	lookupHopsSig:mean 	25.416666666667
scalar Network.dyn_peer[192] 	lookupTimeSig:mean 	3.4047619047619
scalar Network.dyn_peer[192] 	lookupStabilitySig:mean 	0.9648453831462
scalar Network.dyn_peer[192] 	lookupHopsSig:mean 	33.095238095238
scalar Network.dyn_peer[193] 	lookupTimeSig:mean 	3.204
scalar Network.dyn_peer[193] 	lookupStabilitySig:mean 	0.96324871471152
scalar Network.dyn_peer[193] 	lookupHopsSig:mean 	31.08
scalar Network.dyn_peer[194] 	lookupTimeSig:mean 	3.7185185185185
scalar Network.dyn_peer[194] 	lookupStabilitySig:mean 	0.96729191748805
scalar Network.dyn_peer[194] 	lookupHopsSig:mean 	36.222222222222
scalar Network.dyn_peer[195] 	lookupTimeSig:mean 	2.8923076923077
scalar Network.dyn_peer[195] 	lookupStabilitySig:mean 	0.95090326702652
scalar Network.dyn_peer[195] 	lookupHopsSig:mean 	28
scalar Network.dyn_peer[196] 	lookupTimeSig:mean 	2.4466666666667
scalar Network.dyn_peer[196] 	lookupStabilitySig:mean 	0.95818226723156
scalar Network.dyn_peer[196] 	lookupHopsSig:mean 	23.533333333333
scalar Network.dyn_peer[197] 	lookupTimeSig:mean 	3.5052631578947
scalar Network.dyn_peer[197] 	lookupStabilitySig:mean 	0.96592588701874
scalar Network.dyn_peer[197] 	lookupHopsSig:mean 	34.105263157895
scalar Network.dyn_peer[198] 	lookupTimeSig:mean 	3.1470588235294
scalar Network.dyn_peer[198] 	lookupStabilitySig:mean 	0.96353668457938
scalar Network.dyn_peer[198] 	lookupHopsSig:mean 	30.529411764706
scalar Network.dyn_peer[199] 	lookupTimeSig:mean 	3.076
scalar Network.dyn_peer[199] 	lookupStabilitySig:mean 	0.96651593931951
scalar Network.dyn_peer[199] 	lookupHopsSig:mean 	29.8
scalar Network.dyn_peer[200] 	lookupTimeSig:mean 	3.2484848484848
scalar Network.dyn_peer[200] 	lookupStabilitySig:mean 	0.97429856859768
scalar Network.dyn_peer[200] 	lookupHopsSig:mean 	31.515151515152
scalar Network.dyn_peer[201] 	lookupTimeSig:mean 	3.3608695652174
scalar Network.dyn_peer[201] 	lookupStabilitySig:mean 	0.96250276461892
scalar Network.dyn_peer[201] 	lookupHopsSig:mean 	32.652173913043
scalar Network.dyn_peer[202] 	lookupTimeSig:mean 	3.6642857142857
scalar Network.dyn_peer[202] 	lookupStabilitySig:mean 	0.95043219715756
scalar Network.dyn_peer[202] 	lookupHopsSig:mean 	35.714285714286
scalar Network.dyn_peer[203] 	lookupTimeSig:mean 	3.015
scalar Network.dyn_peer[203] 	lookupStabilitySig:mean 	0.96286365811829
scalar Network.dyn_peer[203] 	lookupHopsSig:mean 	29.2
scalar Network.dyn_peer[204] 	lookupTimeSig:mean 	3.224
scalar Network.dyn_peer[204] 	lookupStabilitySig:mean 	0.96756688661873
scalar Network.dyn_peer[204] 	lookupHopsSig:mean 	31.28
scalar Network.dyn_peer[205] 	lookupTimeSig:mean 	3.6666666666667
scalar Network.dyn_peer[205] 	lookupStabilitySig:mean 	0.95849550277732
scalar Network.dyn_peer[205] 	lookupHopsSig:mean 	35.75
scalar Network.dyn_peer[206] 	lookupTimeSig:mean 	3.2
scalar Network.dyn_peer[206] 	lookupStabilitySig:mean 	0.94843246928854
scalar Network.dyn_peer[206] 	lookupHopsSig:mean 	31.058823529412
scalar Network.dyn_peer[207] 	lookupTimeSig:mean 	2.5545454545455
scalar Network.dyn_peer[207] 	lookupStabilitySig:mean 	0.9725350791405
scalar Network.dyn_peer[207] 	lookupHopsSig:mean 	24.575757575758
scalar Network.dyn_peer[208] 	lookupTimeSig:mean 	2.9833333333333
scalar Network.dyn_peer[208] 	lookupStabilitySig:mean 	0.94607600142869
scalar Network.dyn_peer[208] 	lookupHopsSig:mean 	28.916666666667
scalar Network.dyn_peer[209] 	lookupTimeSig:mean 	2.67
scalar Network.dyn_peer[209] 	lookupStabilitySig:mean 	0.96153442054056
scalar Network.dyn_peer[209] 	lookupHopsSig:mean 	25.75
scalar Network.dyn_peer[210] 	lookupTimeSig:mean 	4.3666666666667
scalar Network.dyn_peer[210] 	lookupStabilitySig:mean 	0.96531260412164
scalar Network.dyn_peer[210] 	lookupHopsSig:mean 	42.714285714286
scalar Network.dyn_peer[211] 	lookupTimeSig:mean 	3.532
scalar Network.dyn_peer[211] 	lookupStabilitySig:mean 	0.97087600588799
scalar Network.dyn_peer[211] 	lookupHopsSig:mean 	34.36
scalar Network.dyn_peer[212] 	lookupTimeSig:mean 	4
scalar Network.dyn_peer[212] 	lookupStabilitySig:mean 	0.96447311171796
scalar Network.dyn_peer[212] 	lookupHopsSig:mean 	39.05
scalar Network.dyn_peer[213] 	lookupTimeSig:mean 	4.0526315789474
scalar Network.dyn_peer[213] 	lookupStabilitySig:mean 	0.95558298589956
scalar Network.dyn_peer[213] 	lookupHopsSig:mean 	39.578947368421
scalar Network.dyn_peer[214] 	lookupTimeSig:mean 	2.9111111111111
scalar Network.dyn_peer[214] 	lookupStabilitySig:mean 	0.95097538818502
scalar Network.dyn_peer[214] 	lookupHopsSig:mean 	28.166666666667
scalar Network.dyn_peer[215] 	lookupTimeSig:mean 	2.9695652173913
scalar Network.dyn_peer[215] 	lookupStabilitySig:mean 	0.97172060896359
scalar Network.dyn_peer[215] 	lookupHopsSig:mean 	28.739130434783
scalar Network.dyn_peer[216] 	lookupTimeSig:mean 	4.6588235294118
scalar Network.dyn_peer[216] 	lookupStabilitySig:mean 	0.95622642817633
scalar Network.dyn_peer[216] 	lookupHopsSig:mean 	45.647058823529
scalar Network.dyn_peer[217] 	lookupTimeSig:mean 	3.1863636363636
scalar Network.dyn_peer[217] 	lookupStabilitySig:mean 	0.96529174661687
scalar Network.dyn_peer[217] 	lookupHopsSig:mean 	30.909090909091
scalar Network.dyn_peer[218] 	lookupTimeSig:mean 	3.172
scalar Network.dyn_peer[218] 	lookupStabilitySig:mean 	0.97719905007165
scalar Network.dyn_peer[218] 	lookupHopsSig:mean 	30.76
scalar Network.dyn_peer[219] 	lookupTimeSig:mean 	2.575
scalar Network.dyn_peer[219] 	lookupStabilitySig:mean 	0.96536701825389
scalar Network.dyn_peer[219] 	lookupHopsSig:mean 	24.8
scalar Network.dyn_peer[220] 	lookupTimeSig:mean 	3.005
scalar Network.dyn_peer[220] 	lookupStabilitySig:mean 	0.96371092908084
scalar Network.dyn_peer[220] 	lookupHopsSig:mean 	29.1
scalar Network.dyn_peer[221] 	lookupTimeSig:mean 	4.2352941176471
scalar Network.dyn_peer[221] 	lookupStabilitySig:mean 	0.95457405890064
scalar Network.dyn_peer[221] 	lookupHopsSig:mean 	41.411764705882
scalar Network.dyn_peer[222] 	lookupTimeSig:mean 	1.9285714285714
scalar Network.dyn_peer[222] 	lookupStabilitySig:mean 	0.96145414733993
scalar Network.dyn_peer[222] 	lookupHopsSig:mean 	18.357142857143
scalar Network.dyn_peer[223] 	lookupTimeSig:mean 	4.055
scalar Network.dyn_peer[223] 	lookupStabilitySig:mean 	0.96013608454377
scalar Network.dyn_peer[223] 	lookupHopsSig:mean 	39.6
scalar Network.dyn_peer[224] 	lookupTimeSig:mean 	3.675
scalar Network.dyn_peer[224] 	lookupStabilitySig:mean 	0.97154955824711
scalar Network.dyn_peer[224] 	lookupHopsSig:mean 	35.791666666667
scalar Network.dyn_peer[225] 	lookupTimeSig:mean 	3.5409090909091
scalar Network.dyn_peer[225] 	lookupStabilitySig:mean 	0.97097931678978
scalar Network.dyn_peer[225] 	lookupHopsSig:mean 	34.454545454545
scalar Network.dyn_peer[226] 	lookupTimeSig:mean 	1.8611111111111
scalar Network.dyn_peer[226] 	lookupStabilitySig:mean 	0.96570357733354
scalar Network.dyn_peer[226] 	lookupHopsSig:mean 	17.666666666667
scalar Network.dyn_peer[227] 	lookupTimeSig:mean 	2.9538461538462
scalar Network.dyn_peer[227] 	lookupStabilitySig:mean 	0.96937101782085
scalar Network.dyn_peer[227] 	lookupHopsSig:mean 	28.576923076923
scalar Network.dyn_peer[228] 	lookupTimeSig:mean 	2.3076923076923
scalar Network.dyn_peer[228] 	lookupStabilitySig:mean 	0.95650273249843
scalar Network.dyn_peer[228] 	lookupHopsSig:mean 	22.153846153846
scalar Network.dyn_peer[229] 	lookupTimeSig:mean 	3.6333333333333
scalar Network.dyn_peer[229] 	lookupStabilitySig:mean 	0.96552930658476
scalar Network.dyn_peer[229] 	lookupHopsSig:mean 	35.388888888889
scalar Network.dyn_peer[230] 	lookupTimeSig:mean 	3.4304347826087
scalar Network.dyn_peer[230] 	lookupStabilitySig:mean 	0.9726062317723
scalar Network.dyn_peer[230] 	lookupHopsSig:mean 	33.347826086957
scalar Network.dyn_peer[231] 	lookupTimeSig:mean 	2.6916666666667
scalar Network.dyn_peer[231] 	lookupStabilitySig:mean 	0.96178751516466
scalar Network.dyn_peer[231] 	lookupHopsSig:mean 	26
scalar Network.dyn_peer[232] 	lookupTimeSig:mean 	3.3266666666667
scalar Network.dyn_peer[232] 	lookupStabilitySig:mean 	0.95243076573436
scalar Network.dyn_peer[232] 	lookupHopsSig:mean 	32.333333333333
scalar Network.dyn_peer[233] 	lookupTimeSig:mean 	2.6307692307692
scalar Network.dyn_peer[233] 	lookupStabilitySig:mean 	0.94514578609512
scalar Network.dyn_peer[233] 	lookupHopsSig:mean 	25.384615384615
scalar Network.dyn_peer[234] 	lookupTimeSig:mean 	2.52
scalar Network.dyn_peer[234] 	lookupStabilitySig:mean 	0.94072703579441
scalar Network.dyn_peer[234] 	lookupHopsSig:mean 	24.3
scalar Network.dyn_peer[235] 	lookupTimeSig:mean 	2.8761904761905
scalar Network.dyn_peer[235] 	lookupStabilitySig:mean 	0.965435045034
scalar Network.dyn_peer[235] 	lookupHopsSig:mean 	27.809523809524
scalar Network.dyn_peer[236] 	lookupTimeSig:mean 	3.14375
scalar Network.dyn_peer[236] 	lookupStabilitySig:mean 	0.95606400448014
scalar Network.dyn_peer[236] 	lookupHopsSig:mean 	30.5
scalar Network.dyn_peer[237] 	lookupTimeSig:mean 	3.5666666666667
scalar Network.dyn_peer[237] 	lookupStabilitySig:mean 	0.97101307922033
scalar Network.dyn_peer[237] 	lookupHopsSig:mean 	34.708333333333
scalar Network.dyn_peer[238] 	lookupTimeSig:mean 	3.3647058823529
scalar Network.dyn_peer[238] 	lookupStabilitySig:mean 	0.95967426424956
scalar Network.dyn_peer[238] 	lookupHopsSig:mean 	32.705882352941
scalar Network.dyn_peer[239] 	lookupTimeSig:mean 	3.4923076923077
scalar Network.dyn_peer[239] 	lookupStabilitySig:mean 	0.97245688588233
scalar Network.dyn_peer[239] 	lookupHopsSig:mean 	33.961538461538
scalar Network.dyn_peer[240] 	lookupTimeSig:mean 	3.2368421052632
scalar Network.dyn_peer[240] 	lookupStabilitySig:mean 	0.96306654636895
scalar Network.dyn_peer[240] 	lookupHopsSig:mean 	31.421052631579
scalar Network.dyn_peer[241] 	lookupTimeSig:mean 	3.18
scalar Network.dyn_peer[241] 	lookupStabilitySig:mean 	0.96508932043798
scalar Network.dyn_peer[241] 	lookupHopsSig:mean 	30.85
scalar Network.dyn_peer[242] 	lookupTimeSig:mean 	2.9263157894737
scalar Network.dyn_peer[242] 	lookupStabilitySig:mean 	0.97421485071659
scalar Network.dyn_peer[242] 	lookupHopsSig:mean 	28.315789473684
scalar Network.dyn_peer[243] 	lookupTimeSig:mean 	3.9692307692308
scalar Network.dyn_peer[243] 	lookupStabilitySig:mean 	0.97153341933154
scalar Network.dyn_peer[243] 	lookupHopsSig:mean 	38.730769230769
scalar Network.dyn_peer[244] 	lookupTimeSig:mean 	2.6117647058824
scalar Network.dyn_peer[244] 	lookupStabilitySig:mean 	0.96601008128046
scalar Network.dyn_peer[244] 	lookupHopsSig:mean 	25.176470588235
scalar Network.dyn_peer[245] 	lookupTimeSig:mean 	2
scalar Network.dyn_peer[245] 	lookupStabilitySig:mean 	0.97126048725869
scalar Network.dyn_peer[245] 	lookupHopsSig:mean 	19.076923076923
scalar Network.dyn_peer[246] 	lookupTimeSig:mean 	2.175
scalar Network.dyn_peer[246] 	lookupStabilitySig:mean 	0.96468951230054
scalar Network.dyn_peer[246] 	lookupHopsSig:mean 	20.833333333333
scalar Network.dyn_peer[247] 	lookupTimeSig:mean 	4.8764705882353
scalar Network.dyn_peer[247] 	lookupStabilitySig:mean 	0.96855972184087
scalar Network.dyn_peer[247] 	lookupHopsSig:mean 	47.823529411765
scalar Network.dyn_peer[248] 	lookupTimeSig:mean 	3.305
scalar Network.dyn_peer[248] 	lookupStabilitySig:mean 	0.96579956340429
scalar Network.dyn_peer[248] 	lookupHopsSig:mean 	32.1
scalar Network.dyn_peer[249] 	lookupTimeSig:mean 	6.0083333333333
scalar Network.dyn_peer[249] 	lookupStabilitySig:mean 	0.95403612253722
scalar Network.dyn_peer[249] 	lookupHopsSig:mean 	59.166666666667
scalar Network.dyn_peer[250] 	lookupTimeSig:mean 	3.7888888888889
scalar Network.dyn_peer[250] 	lookupStabilitySig:mean 	0.96449245950983
scalar Network.dyn_peer[250] 	lookupHopsSig:mean 	36.944444444444
scalar Network.dyn_peer[251] 	lookupTimeSig:mean 	3.762962962963
scalar Network.dyn_peer[251] 	lookupStabilitySig:mean 	0.97024805698095
scalar Network.dyn_peer[251] 	lookupHopsSig:mean 	36.666666666667
scalar Network.dyn_peer[252] 	lookupTimeSig:mean 	3.1869565217391
scalar Network.dyn_peer[252] 	lookupStabilitySig:mean 	0.97009562494476
scalar Network.dyn_peer[252] 	lookupHopsSig:mean 	30.913043478261
scalar Network.dyn_peer[253] 	lookupTimeSig:mean 	6.575
scalar Network.dyn_peer[253] 	lookupStabilitySig:mean 	0.94968151601885
scalar Network.dyn_peer[253] 	lookupHopsSig:mean 	64.833333333333
scalar Network.dyn_peer[254] 	lookupTimeSig:mean 	2.9333333333333
scalar Network.dyn_peer[254] 	lookupStabilitySig:mean 	0.95875674828939
scalar Network.dyn_peer[254] 	lookupHopsSig:mean 	28.388888888889
scalar Network.dyn_peer[255] 	lookupTimeSig:mean 	2.968
scalar Network.dyn_peer[255] 	lookupStabilitySig:mean 	0.97154680307489
scalar Network.dyn_peer[255] 	lookupHopsSig:mean 	28.72
scalar Network.dyn_peer[256] 	lookupTimeSig:mean 	3.04375
scalar Network.dyn_peer[256] 	lookupStabilitySig:mean 	0.96118255963665
scalar Network.dyn_peer[256] 	lookupHopsSig:mean 	29.5
scalar Network.dyn_peer[257] 	lookupTimeSig:mean 	2.88
scalar Network.dyn_peer[257] 	lookupStabilitySig:mean 	0.97440843562751
scalar Network.dyn_peer[257] 	lookupHopsSig:mean 	27.833333333333
scalar Network.dyn_peer[258] 	lookupTimeSig:mean 	2.3928571428571
scalar Network.dyn_peer[258] 	lookupStabilitySig:mean 	0.95433569445075
scalar Network.dyn_peer[258] 	lookupHopsSig:mean 	23
scalar Network.dyn_peer[259] 	lookupTimeSig:mean 	3.936
scalar Network.dyn_peer[259] 	lookupStabilitySig:mean 	0.96746307312511
scalar Network.dyn_peer[259] 	lookupHopsSig:mean 	38.4
scalar Network.dyn_peer[260] 	lookupTimeSig:mean 	3.7
scalar Network.dyn_peer[260] 	lookupStabilitySig:mean 	0.95654201484285
scalar Network.dyn_peer[260] 	lookupHopsSig:mean 	36.0625
scalar Network.dyn_peer[261] 	lookupTimeSig:mean 	3.9590909090909
scalar Network.dyn_peer[261] 	lookupStabilitySig:mean 	0.97030224579132
scalar Network.dyn_peer[261] 	lookupHopsSig:mean 	38.636363636364
scalar Network.dyn_peer[262] 	lookupTimeSig:mean 	3.9708333333333
scalar Network.dyn_peer[262] 	lookupStabilitySig:mean 	0.96847791492473
scalar Network.dyn_peer[262] 	lookupHopsSig:mean 	38.75
scalar Network.dyn_peer[263] 	lookupTimeSig:mean 	2.7192307692308
scalar Network.dyn_peer[263] 	lookupStabilitySig:mean 	0.97420097947291
scalar Network.dyn_peer[263] 	lookupHopsSig:mean 	26.230769230769
scalar Network.dyn_peer[264] 	lookupTimeSig:mean 	3.575
scalar Network.dyn_peer[264] 	lookupStabilitySig:mean 	0.9697851046134
scalar Network.dyn_peer[264] 	lookupHopsSig:mean 	34.8
scalar Network.dyn_peer[265] 	lookupTimeSig:mean 	4.7380952380952
scalar Network.dyn_peer[265] 	lookupStabilitySig:mean 	0.96325264807369
scalar Network.dyn_peer[265] 	lookupHopsSig:mean 	46.428571428571
scalar Network.dyn_peer[266] 	lookupTimeSig:mean 	3.0571428571429
scalar Network.dyn_peer[266] 	lookupStabilitySig:mean 	0.9604294739464
scalar Network.dyn_peer[266] 	lookupHopsSig:mean 	29.642857142857
scalar Network.dyn_peer[267] 	lookupTimeSig:mean 	3.1090909090909
scalar Network.dyn_peer[267] 	lookupStabilitySig:mean 	0.97415243112482
scalar Network.dyn_peer[267] 	lookupHopsSig:mean 	30.136363636364
scalar Network.dyn_peer[268] 	lookupTimeSig:mean 	2.7130434782609
scalar Network.dyn_peer[268] 	lookupStabilitySig:mean 	0.97308621117238
scalar Network.dyn_peer[268] 	lookupHopsSig:mean 	26.173913043478
scalar Network.dyn_peer[269] 	lookupTimeSig:mean 	4.15
scalar Network.dyn_peer[269] 	lookupStabilitySig:mean 	0.96420136350207
scalar Network.dyn_peer[269] 	lookupHopsSig:mean 	40.55
scalar Network.dyn_peer[270] 	lookupTimeSig:mean 	4.1133333333333
scalar Network.dyn_peer[270] 	lookupStabilitySig:mean 	0.96241613465051
scalar Network.dyn_peer[270] 	lookupHopsSig:mean 	40.2
scalar Network.dyn_peer[271] 	lookupTimeSig:mean 	2.5526315789474
scalar Network.dyn_peer[271] 	lookupStabilitySig:mean 	0.96720316247573
scalar Network.dyn_peer[271] 	lookupHopsSig:mean 	24.578947368421
scalar Network.dyn_peer[272] 	lookupTimeSig:mean 	3.3923076923077
scalar Network.dyn_peer[272] 	lookupStabilitySig:mean 	0.96117247766457
scalar Network.dyn_peer[272] 	lookupHopsSig:mean 	33
scalar Network.dyn_peer[273] 	lookupTimeSig:mean 	2.5705882352941
scalar Network.dyn_peer[273] 	lookupStabilitySig:mean 	0.96386637541411
scalar Network.dyn_peer[273] 	lookupHopsSig:mean 	24.764705882353
scalar Network.dyn_peer[274] 	lookupTimeSig:mean 	4.9
scalar Network.dyn_peer[274] 	lookupStabilitySig:mean 	0.97264807436361
scalar Network.dyn_peer[274] 	lookupHopsSig:mean 	48.045454545455
scalar Network.dyn_peer[275] 	lookupTimeSig:mean 	3.7222222222222
scalar Network.dyn_peer[275] 	lookupStabilitySig:mean 	0.96281876039898
scalar Network.dyn_peer[275] 	lookupHopsSig:mean 	36.277777777778
scalar Network.dyn_peer[276] 	lookupTimeSig:mean 	3.0235294117647
scalar Network.dyn_peer[276] 	lookupStabilitySig:mean 	0.96220599827083
scalar Network.dyn_peer[276] 	lookupHopsSig:mean 	29.294117647059
scalar Network.dyn_peer[277] 	lookupTimeSig:mean 	3.08125
scalar Network.dyn_peer[277] 	lookupStabilitySig:mean 	0.9679059816699
scalar Network.dyn_peer[277] 	lookupHopsSig:mean 	29.875
scalar Network.dyn_peer[278] 	lookupTimeSig:mean 	3.2025641025641
scalar Network.dyn_peer[278] 	lookupStabilitySig:mean 	0.9813890960963
scalar Network.dyn_peer[278] 	lookupHopsSig:mean 	31.051282051282
scalar Network.dyn_peer[279] 	lookupTimeSig:mean 	2.2166666666667
scalar Network.dyn_peer[279] 	lookupStabilitySig:mean 	0.94863105510982
scalar Network.dyn_peer[279] 	lookupHopsSig:mean 	21.25
scalar Network.dyn_peer[280] 	lookupTimeSig:mean 	3.1321428571429
scalar Network.dyn_peer[280] 	lookupStabilitySig:mean 	0.97334447261112
scalar Network.dyn_peer[280] 	lookupHopsSig:mean 	30.357142857143
scalar Network.dyn_peer[281] 	lookupTimeSig:mean 	3.0210526315789
scalar Network.dyn_peer[281] 	lookupStabilitySig:mean 	0.96877566074315
scalar Network.dyn_peer[281] 	lookupHopsSig:mean 	29.263157894737
scalar Network.dyn_peer[282] 	lookupTimeSig:mean 	3.228125
scalar Network.dyn_peer[282] 	lookupStabilitySig:mean 	0.97813730575217
scalar Network.dyn_peer[282] 	lookupHopsSig:mean 	31.3125
scalar Network.dyn_peer[283] 	lookupTimeSig:mean 	3.3916666666667
scalar Network.dyn_peer[283] 	lookupStabilitySig:mean 	0.97929646979901
scalar Network.dyn_peer[283] 	lookupHopsSig:mean 	32.958333333333
scalar Network.dyn_peer[284] 	lookupTimeSig:mean 	3.6409090909091
scalar Network.dyn_peer[284] 	lookupStabilitySig:mean 	0.97487624276387
scalar Network.dyn_peer[284] 	lookupHopsSig:mean 	35.454545454545
scalar Network.dyn_peer[285] 	lookupTimeSig:mean 	3.3235294117647
scalar Network.dyn_peer[285] 	lookupStabilitySig:mean 	0.96678052052362
scalar Network.dyn_peer[285] 	lookupHopsSig:mean 	32.294117647059
scalar Network.dyn_peer[286] 	lookupTimeSig:mean 	3.4925925925926
scalar Network.dyn_peer[286] 	lookupStabilitySig:mean 	0.97679826740124
scalar Network.dyn_peer[286] 	lookupHopsSig:mean 	33.962962962963
scalar Network.dyn_peer[287] 	lookupTimeSig:mean 	3.0666666666667
scalar Network.dyn_peer[287] 	lookupStabilitySig:mean 	0.96528874071211
scalar Network.dyn_peer[287] 	lookupHopsSig:mean 	29.722222222222
scalar Network.dyn_peer[288] 	lookupTimeSig:mean 	3.25
scalar Network.dyn_peer[288] 	lookupStabilitySig:mean 	0.96322732403254
scalar Network.dyn_peer[288] 	lookupHopsSig:mean 	31.555555555556
scalar Network.dyn_peer[289] 	lookupTimeSig:mean 	3.9347826086957
scalar Network.dyn_peer[289] 	lookupStabilitySig:mean 	0.97753006172285
scalar Network.dyn_peer[289] 	lookupHopsSig:mean 	38.391304347826
scalar Network.dyn_peer[290] 	lookupTimeSig:mean 	2.5666666666667
scalar Network.dyn_peer[290] 	lookupStabilitySig:mean 	0.96689873213126
scalar Network.dyn_peer[290] 	lookupHopsSig:mean 	24.714285714286
scalar Network.dyn_peer[291] 	lookupTimeSig:mean 	3.5407407407407
scalar Network.dyn_peer[291] 	lookupStabilitySig:mean 	0.9712891925247
scalar Network.dyn_peer[291] 	lookupHopsSig:mean 	34.444444444444
scalar Network.dyn_peer[292] 	lookupTimeSig:mean 	2.7041666666667
scalar Network.dyn_peer[292] 	lookupStabilitySig:mean 	0.97235755578731
scalar Network.dyn_peer[292] 	lookupHopsSig:mean 	26.083333333333
scalar Network.dyn_peer[293] 	lookupTimeSig:mean 	3.5454545454545
scalar Network.dyn_peer[293] 	lookupStabilitySig:mean 	0.97064055842136
scalar Network.dyn_peer[293] 	lookupHopsSig:mean 	34.5
scalar Network.dyn_peer[294] 	lookupTimeSig:mean 	2.535
scalar Network.dyn_peer[294] 	lookupStabilitySig:mean 	0.96417227182537
scalar Network.dyn_peer[294] 	lookupHopsSig:mean 	24.4
scalar Network.dyn_peer[295] 	lookupTimeSig:mean 	2.452
scalar Network.dyn_peer[295] 	lookupStabilitySig:mean 	0.97590545179322
scalar Network.dyn_peer[295] 	lookupHopsSig:mean 	23.56
scalar Network.dyn_peer[296] 	lookupTimeSig:mean 	3.035
scalar Network.dyn_peer[296] 	lookupStabilitySig:mean 	0.97195540025132
scalar Network.dyn_peer[296] 	lookupHopsSig:mean 	29.4
scalar Network.dyn_peer[297] 	lookupTimeSig:mean 	4.9666666666667
scalar Network.dyn_peer[297] 	lookupStabilitySig:mean 	0.95139458102898
scalar Network.dyn_peer[297] 	lookupHopsSig:mean 	48.777777777778
scalar Network.dyn_peer[298] 	lookupTimeSig:mean 	4.0708333333333
scalar Network.dyn_peer[298] 	lookupStabilitySig:mean 	0.9768236913272
scalar Network.dyn_peer[298] 	lookupHopsSig:mean 	39.75
scalar Network.dyn_peer[299] 	lookupTimeSig:mean 	3.4304347826087
scalar Network.dyn_peer[299] 	lookupStabilitySig:mean 	0.96987697073137
scalar Network.dyn_peer[299] 	lookupHopsSig:mean 	33.347826086957
scalar Network.dyn_peer[300] 	lookupTimeSig:mean 	3.15
scalar Network.dyn_peer[300] 	lookupStabilitySig:mean 	0.96926492714556
scalar Network.dyn_peer[300] 	lookupHopsSig:mean 	30.5625
scalar Network.dyn_peer[301] 	lookupTimeSig:mean 	3.025
scalar Network.dyn_peer[301] 	lookupStabilitySig:mean 	0.96619476680644
scalar Network.dyn_peer[301] 	lookupHopsSig:mean 	29.3125
scalar Network.dyn_peer[302] 	lookupTimeSig:mean 	3.2
scalar Network.dyn_peer[302] 	lookupStabilitySig:mean 	0.95498524590706
scalar Network.dyn_peer[302] 	lookupHopsSig:mean 	31.083333333333
scalar Network.dyn_peer[303] 	lookupTimeSig:mean 	3.047619047619
scalar Network.dyn_peer[303] 	lookupStabilitySig:mean 	0.97650193155416
scalar Network.dyn_peer[303] 	lookupHopsSig:mean 	29.52380952381
scalar Network.dyn_peer[304] 	lookupTimeSig:mean 	2.1
scalar Network.dyn_peer[304] 	lookupStabilitySig:mean 	0.97268395535648
scalar Network.dyn_peer[304] 	lookupHopsSig:mean 	20.1
scalar Network.dyn_peer[305] 	lookupTimeSig:mean 	3.2826086956522
scalar Network.dyn_peer[305] 	lookupStabilitySig:mean 	0.96957657431536
scalar Network.dyn_peer[305] 	lookupHopsSig:mean 	31.869565217391
scalar Network.dyn_peer[306] 	lookupTimeSig:mean 	2.6642857142857
scalar Network.dyn_peer[306] 	lookupStabilitySig:mean 	0.95967029386
scalar Network.dyn_peer[306] 	lookupHopsSig:mean 	25.714285714286
scalar Network.dyn_peer[307] 	lookupTimeSig:mean 	3.0346153846154
scalar Network.dyn_peer[307] 	lookupStabilitySig:mean 	0.97387302064229
scalar Network.dyn_peer[307] 	lookupHopsSig:mean 	29.384615384615
scalar Network.dyn_peer[308] 	lookupTimeSig:mean 	3.1666666666667
scalar Network.dyn_peer[308] 	lookupStabilitySig:mean 	0.96994251185762
scalar Network.dyn_peer[308] 	lookupHopsSig:mean 	30.714285714286
scalar Network.dyn_peer[309] 	lookupTimeSig:mean 	4.1708333333333
scalar Network.dyn_peer[309] 	lookupStabilitySig:mean 	0.9712352877638
scalar Network.dyn_peer[309] 	lookupHopsSig:mean 	40.75
scalar Network.dyn_peer[310] 	lookupTimeSig:mean 	3.9619047619048
scalar Network.dyn_peer[310] 	lookupStabilitySig:mean 	0.96708610414394
scalar Network.dyn_peer[310] 	lookupHopsSig:mean 	38.666666666667
scalar Network.dyn_peer[311] 	lookupTimeSig:mean 	3.2583333333333
scalar Network.dyn_peer[311] 	lookupStabilitySig:mean 	0.95285672834143
scalar Network.dyn_peer[311] 	lookupHopsSig:mean 	31.666666666667
scalar Network.dyn_peer[312] 	lookupTimeSig:mean 	3.1833333333333
scalar Network.dyn_peer[312] 	lookupStabilitySig:mean 	0.97540340551738
scalar Network.dyn_peer[312] 	lookupHopsSig:mean 	30.875
scalar Network.dyn_peer[313] 	lookupTimeSig:mean 	3.2541666666667
scalar Network.dyn_peer[313] 	lookupStabilitySig:mean 	0.97244029240877
scalar Network.dyn_peer[313] 	lookupHopsSig:mean 	31.583333333333
scalar Network.dyn_peer[314] 	lookupTimeSig:mean 	2.3785714285714
scalar Network.dyn_peer[314] 	lookupStabilitySig:mean 	0.95999659205388
scalar Network.dyn_peer[314] 	lookupHopsSig:mean 	22.857142857143
scalar Network.dyn_peer[315] 	lookupTimeSig:mean 	2.5714285714286
scalar Network.dyn_peer[315] 	lookupStabilitySig:mean 	0.96405503885554
scalar Network.dyn_peer[315] 	lookupHopsSig:mean 	24.785714285714
scalar Network.dyn_peer[316] 	lookupTimeSig:mean 	2.75
scalar Network.dyn_peer[316] 	lookupStabilitySig:mean 	0.98021619259625
scalar Network.dyn_peer[316] 	lookupHopsSig:mean 	26.526315789474
scalar Network.dyn_peer[317] 	lookupTimeSig:mean 	5.45
scalar Network.dyn_peer[317] 	lookupStabilitySig:mean 	0.95211244677193
scalar Network.dyn_peer[317] 	lookupHopsSig:mean 	53.666666666667
scalar Network.dyn_peer[318] 	lookupTimeSig:mean 	2.4666666666667
scalar Network.dyn_peer[318] 	lookupStabilitySig:mean 	0.96203566699599
scalar Network.dyn_peer[318] 	lookupHopsSig:mean 	23.75
scalar Network.dyn_peer[319] 	lookupTimeSig:mean 	3.9533333333333
scalar Network.dyn_peer[319] 	lookupStabilitySig:mean 	0.95898289222581
scalar Network.dyn_peer[319] 	lookupHopsSig:mean 	38.6
scalar Network.dyn_peer[320] 	lookupTimeSig:mean 	3.3227272727273
scalar Network.dyn_peer[320] 	lookupStabilitySig:mean 	0.97569690700832
scalar Network.dyn_peer[320] 	lookupHopsSig:mean 	32.272727272727
scalar Network.dyn_peer[321] 	lookupTimeSig:mean 	2.4620689655172
scalar Network.dyn_peer[321] 	lookupStabilitySig:mean 	0.98062172560985
scalar Network.dyn_peer[321] 	lookupHopsSig:mean 	23.655172413793
scalar Network.dyn_peer[322] 	lookupTimeSig:mean 	2.4846153846154
scalar Network.dyn_peer[322] 	lookupStabilitySig:mean 	0.97295698193977
scalar Network.dyn_peer[322] 	lookupHopsSig:mean 	23.923076923077
scalar Network.dyn_peer[323] 	lookupTimeSig:mean 	3.4291666666667
scalar Network.dyn_peer[323] 	lookupStabilitySig:mean 	0.97830125703088
scalar Network.dyn_peer[323] 	lookupHopsSig:mean 	33.333333333333
scalar Network.dyn_peer[324] 	lookupTimeSig:mean 	4.3333333333333
scalar Network.dyn_peer[324] 	lookupStabilitySig:mean 	0.96480613589908
scalar Network.dyn_peer[324] 	lookupHopsSig:mean 	42.4
scalar Network.dyn_peer[325] 	lookupTimeSig:mean 	3.1571428571429
scalar Network.dyn_peer[325] 	lookupStabilitySig:mean 	0.94769300214414
scalar Network.dyn_peer[325] 	lookupHopsSig:mean 	30.714285714286
scalar Network.dyn_peer[326] 	lookupTimeSig:mean 	2.9454545454545
scalar Network.dyn_peer[326] 	lookupStabilitySig:mean 	0.97160788261416
scalar Network.dyn_peer[326] 	lookupHopsSig:mean 	28.5
scalar Network.dyn_peer[327] 	lookupTimeSig:mean 	3.8142857142857
scalar Network.dyn_peer[327] 	lookupStabilitySig:mean 	0.97843289709168
scalar Network.dyn_peer[327] 	lookupHopsSig:mean 	37.178571428571
scalar Network.dyn_peer[328] 	lookupTimeSig:mean 	2.7090909090909
scalar Network.dyn_peer[328] 	lookupStabilitySig:mean 	0.94993698232892
scalar Network.dyn_peer[328] 	lookupHopsSig:mean 	26.181818181818
scalar Network.dyn_peer[329] 	lookupTimeSig:mean 	3.6952380952381
scalar Network.dyn_peer[329] 	lookupStabilitySig:mean 	0.97314042438354
scalar Network.dyn_peer[329] 	lookupHopsSig:mean 	36
scalar Network.dyn_peer[330] 	lookupTimeSig:mean 	3.36
scalar Network.dyn_peer[330] 	lookupStabilitySig:mean 	0.97383903791197
scalar Network.dyn_peer[330] 	lookupHopsSig:mean 	32.64
scalar Network.dyn_peer[331] 	lookupTimeSig:mean 	2.5833333333333
scalar Network.dyn_peer[331] 	lookupStabilitySig:mean 	0.98040166902501
scalar Network.dyn_peer[331] 	lookupHopsSig:mean 	24.875
scalar Network.dyn_peer[332] 	lookupTimeSig:mean 	2.7206896551724
scalar Network.dyn_peer[332] 	lookupStabilitySig:mean 	0.9780217737947
scalar Network.dyn_peer[332] 	lookupHopsSig:mean 	26.241379310345
scalar Network.dyn_peer[333] 	lookupTimeSig:mean 	3.19
scalar Network.dyn_peer[333] 	lookupStabilitySig:mean 	0.95967079279944
scalar Network.dyn_peer[333] 	lookupHopsSig:mean 	31
scalar Network.dyn_peer[334] 	lookupTimeSig:mean 	2.4708333333333
scalar Network.dyn_peer[334] 	lookupStabilitySig:mean 	0.97536459858141
scalar Network.dyn_peer[334] 	lookupHopsSig:mean 	23.75
scalar Network.dyn_peer[335] 	lookupTimeSig:mean 	3.5709677419355
scalar Network.dyn_peer[335] 	lookupStabilitySig:mean 	0.97673540611117
scalar Network.dyn_peer[335] 	lookupHopsSig:mean 	34.741935483871
scalar Network.dyn_peer[336] 	lookupTimeSig:mean 	3.5130434782609
scalar Network.dyn_peer[336] 	lookupStabilitySig:mean 	0.97202939174705
scalar Network.dyn_peer[336] 	lookupHopsSig:mean 	34.173913043478
scalar Network.dyn_peer[337] 	lookupTimeSig:mean 	4.9
scalar Network.dyn_peer[337] 	lookupStabilitySig:mean 	0.95364676392637
scalar Network.dyn_peer[337] 	lookupHopsSig:mean 	48.125
scalar Network.dyn_peer[338] 	lookupTimeSig:mean 	3.9090909090909
scalar Network.dyn_peer[338] 	lookupStabilitySig:mean 	0.97581536660437
scalar Network.dyn_peer[338] 	lookupHopsSig:mean 	38.136363636364
scalar Network.dyn_peer[339] 	lookupTimeSig:mean 	3.9222222222222
scalar Network.dyn_peer[339] 	lookupStabilitySig:mean 	0.97375775066515
scalar Network.dyn_peer[339] 	lookupHopsSig:mean 	38.277777777778
scalar Network.dyn_peer[340] 	lookupTimeSig:mean 	2.7941176470588
scalar Network.dyn_peer[340] 	lookupStabilitySig:mean 	0.970844579751
scalar Network.dyn_peer[340] 	lookupHopsSig:mean 	27
scalar Network.dyn_peer[341] 	lookupTimeSig:mean 	3.9464285714286
scalar Network.dyn_peer[341] 	lookupStabilitySig:mean 	0.97947799104233
scalar Network.dyn_peer[341] 	lookupHopsSig:mean 	38.5
scalar Network.dyn_peer[342] 	lookupTimeSig:mean 	2.8875
scalar Network.dyn_peer[342] 	lookupStabilitySig:mean 	0.9620229335269
scalar Network.dyn_peer[342] 	lookupHopsSig:mean 	27.9375
scalar Network.dyn_peer[343] 	lookupTimeSig:mean 	3.58
scalar Network.dyn_peer[343] 	lookupStabilitySig:mean 	0.97053281459375
scalar Network.dyn_peer[343] 	lookupHopsSig:mean 	34.85
scalar Network.dyn_peer[344] 	lookupTimeSig:mean 	4.3083333333333
scalar Network.dyn_peer[344] 	lookupStabilitySig:mean 	0.97326362249441
scalar Network.dyn_peer[344] 	lookupHopsSig:mean 	42.125
scalar Network.dyn_peer[345] 	lookupTimeSig:mean 	2.88
scalar Network.dyn_peer[345] 	lookupStabilitySig:mean 	0.96037342920899
scalar Network.dyn_peer[345] 	lookupHopsSig:mean 	27.9
scalar Network.dyn_peer[346] 	lookupTimeSig:mean 	2.7
scalar Network.dyn_peer[346] 	lookupStabilitySig:mean 	0.97571932739229
scalar Network.dyn_peer[346] 	lookupHopsSig:mean 	26.05
scalar Network.dyn_peer[347] 	lookupTimeSig:mean 	3.116
scalar Network.dyn_peer[347] 	lookupStabilitySig:mean 	0.97400141379796
scalar Network.dyn_peer[347] 	lookupHopsSig:mean 	30.2
scalar Network.dyn_peer[348] 	lookupTimeSig:mean 	2.04
scalar Network.dyn_peer[348] 	lookupStabilitySig:mean 	0.96751995092879
scalar Network.dyn_peer[348] 	lookupHopsSig:mean 	19.466666666667
scalar Network.dyn_peer[349] 	lookupTimeSig:mean 	1.8333333333333
scalar Network.dyn_peer[349] 	lookupStabilitySig:mean 	0.94144479899357
scalar Network.dyn_peer[349] 	lookupHopsSig:mean 	17.5
scalar Network.dyn_peer[350] 	lookupTimeSig:mean 	3.8444444444444
scalar Network.dyn_peer[350] 	lookupStabilitySig:mean 	0.96725090357682
scalar Network.dyn_peer[350] 	lookupHopsSig:mean 	37.5
scalar Network.dyn_peer[351] 	lookupTimeSig:mean 	4.7277777777778
scalar Network.dyn_peer[351] 	lookupStabilitySig:mean 	0.97433284424349
scalar Network.dyn_peer[351] 	lookupHopsSig:mean 	46.333333333333
scalar Network.dyn_peer[352] 	lookupTimeSig:mean 	4.7142857142857
scalar Network.dyn_peer[352] 	lookupStabilitySig:mean 	0.96512401463198
scalar Network.dyn_peer[352] 	lookupHopsSig:mean 	46.214285714286
scalar Network.dyn_peer[353] 	lookupTimeSig:mean 	1.9125
scalar Network.dyn_peer[353] 	lookupStabilitySig:mean 	0.97103015793982
scalar Network.dyn_peer[353] 	lookupHopsSig:mean 	18.1875
scalar Network.dyn_peer[354] 	lookupTimeSig:mean 	3.2826086956522
scalar Network.dyn_peer[354] 	lookupStabilitySig:mean 	0.97194572687959
scalar Network.dyn_peer[354] 	lookupHopsSig:mean 	31.869565217391
scalar Network.dyn_peer[355] 	lookupTimeSig:mean 	2.9222222222222
scalar Network.dyn_peer[355] 	lookupStabilitySig:mean 	0.97260033008125
scalar Network.dyn_peer[355] 	lookupHopsSig:mean 	28.333333333333
scalar Network.dyn_peer[356] 	lookupTimeSig:mean 	3.1047619047619
scalar Network.dyn_peer[356] 	lookupStabilitySig:mean 	0.97578697144941
scalar Network.dyn_peer[356] 	lookupHopsSig:mean 	30.095238095238
scalar Network.dyn_peer[357] 	lookupTimeSig:mean 	1.805
scalar Network.dyn_peer[357] 	lookupStabilitySig:mean 	0.9769921181025
scalar Network.dyn_peer[357] 	lookupHopsSig:mean 	17.1
scalar Network.dyn_peer[358] 	lookupTimeSig:mean 	3.4238095238095
scalar Network.dyn_peer[358] 	lookupStabilitySig:mean 	0.97753485673595
scalar Network.dyn_peer[358] 	lookupHopsSig:mean 	33.285714285714
scalar Network.dyn_peer[359] 	lookupTimeSig:mean 	2.3809523809524
scalar Network.dyn_peer[359] 	lookupStabilitySig:mean 	0.97314911737062
scalar Network.dyn_peer[359] 	lookupHopsSig:mean 	22.857142857143
scalar Network.dyn_peer[360] 	lookupTimeSig:mean 	2.845
scalar Network.dyn_peer[360] 	lookupStabilitySig:mean 	0.97685134537751
scalar Network.dyn_peer[360] 	lookupHopsSig:mean 	27.5
scalar Network.dyn_peer[361] 	lookupTimeSig:mean 	3.4470588235294
scalar Network.dyn_peer[361] 	lookupStabilitySig:mean 	0.97057262779323
scalar Network.dyn_peer[361] 	lookupHopsSig:mean 	33.529411764706
scalar Network.dyn_peer[362] 	lookupTimeSig:mean 	4.7176470588235
scalar Network.dyn_peer[362] 	lookupStabilitySig:mean 	0.97387002504376
scalar Network.dyn_peer[362] 	lookupHopsSig:mean 	46.235294117647
scalar Network.dyn_peer[363] 	lookupTimeSig:mean 	3.6208333333333
scalar Network.dyn_peer[363] 	lookupStabilitySig:mean 	0.97825993299678
scalar Network.dyn_peer[363] 	lookupHopsSig:mean 	35.25
scalar Network.dyn_peer[364] 	lookupTimeSig:mean 	2.3230769230769
scalar Network.dyn_peer[364] 	lookupStabilitySig:mean 	0.95842181310917
scalar Network.dyn_peer[364] 	lookupHopsSig:mean 	22.307692307692
scalar Network.dyn_peer[365] 	lookupTimeSig:mean 	3.4958333333333
scalar Network.dyn_peer[365] 	lookupStabilitySig:mean 	0.9785253747735
scalar Network.dyn_peer[365] 	lookupHopsSig:mean 	34
scalar Network.dyn_peer[366] 	lookupTimeSig:mean 	3.0125
scalar Network.dyn_peer[366] 	lookupStabilitySig:mean 	0.97984550486823
scalar Network.dyn_peer[366] 	lookupHopsSig:mean 	29.166666666667
scalar Network.dyn_peer[367] 	lookupTimeSig:mean 	3.1230769230769
scalar Network.dyn_peer[367] 	lookupStabilitySig:mean 	0.98302060535375
scalar Network.dyn_peer[367] 	lookupHopsSig:mean 	30.269230769231
scalar Network.dyn_peer[368] 	lookupTimeSig:mean 	3.948275862069
scalar Network.dyn_peer[368] 	lookupStabilitySig:mean 	0.98100352640151
scalar Network.dyn_peer[368] 	lookupHopsSig:mean 	38.51724137931
scalar Network.dyn_peer[369] 	lookupTimeSig:mean 	3.6285714285714
scalar Network.dyn_peer[369] 	lookupStabilitySig:mean 	0.96528815627763
scalar Network.dyn_peer[369] 	lookupHopsSig:mean 	35.357142857143
scalar Network.dyn_peer[370] 	lookupTimeSig:mean 	3.1307692307692
scalar Network.dyn_peer[370] 	lookupStabilitySig:mean 	0.98013177695863
scalar Network.dyn_peer[370] 	lookupHopsSig:mean 	30.346153846154
scalar Network.dyn_peer[371] 	lookupTimeSig:mean 	4.0142857142857
scalar Network.dyn_peer[371] 	lookupStabilitySig:mean 	0.97734513421061
scalar Network.dyn_peer[371] 	lookupHopsSig:mean 	39.178571428571
scalar Network.dyn_peer[372] 	lookupTimeSig:mean 	4.1074074074074
scalar Network.dyn_peer[372] 	lookupStabilitySig:mean 	0.97887122786293
scalar Network.dyn_peer[372] 	lookupHopsSig:mean 	40.111111111111
scalar Network.dyn_peer[373] 	lookupTimeSig:mean 	2.8826086956522
scalar Network.dyn_peer[373] 	lookupStabilitySig:mean 	0.97284220397958
scalar Network.dyn_peer[373] 	lookupHopsSig:mean 	27.869565217391
scalar Network.dyn_peer[374] 	lookupTimeSig:mean 	2.07
scalar Network.dyn_peer[374] 	lookupStabilitySig:mean 	0.96192955933511
scalar Network.dyn_peer[374] 	lookupHopsSig:mean 	19.8
scalar Network.dyn_peer[375] 	lookupTimeSig:mean 	3.9478260869565
scalar Network.dyn_peer[375] 	lookupStabilitySig:mean 	0.97670527253017
scalar Network.dyn_peer[375] 	lookupHopsSig:mean 	38.521739130435
scalar Network.dyn_peer[376] 	lookupTimeSig:mean 	3.451724137931
scalar Network.dyn_peer[376] 	lookupStabilitySig:mean 	0.97886259318329
scalar Network.dyn_peer[376] 	lookupHopsSig:mean 	33.551724137931
scalar Network.dyn_peer[377] 	lookupTimeSig:mean 	3.5142857142857
scalar Network.dyn_peer[377] 	lookupStabilitySig:mean 	0.97580403023
scalar Network.dyn_peer[377] 	lookupHopsSig:mean 	34.178571428571
scalar Network.dyn_peer[378] 	lookupTimeSig:mean 	3.1583333333333
scalar Network.dyn_peer[378] 	lookupStabilitySig:mean 	0.96755660100219
scalar Network.dyn_peer[378] 	lookupHopsSig:mean 	30.666666666667
scalar Network.dyn_peer[379] 	lookupTimeSig:mean 	3.228125
scalar Network.dyn_peer[379] 	lookupStabilitySig:mean 	0.98244041953694
scalar Network.dyn_peer[379] 	lookupHopsSig:mean 	31.3125
scalar Network.dyn_peer[380] 	lookupTimeSig:mean 	4.0294117647059
scalar Network.dyn_peer[380] 	lookupStabilitySig:mean 	0.98125324148329
scalar Network.dyn_peer[380] 	lookupHopsSig:mean 	39.323529411765
scalar Network.dyn_peer[381] 	lookupTimeSig:mean 	2.8421052631579
scalar Network.dyn_peer[381] 	lookupStabilitySig:mean 	0.96944466988115
scalar Network.dyn_peer[381] 	lookupHopsSig:mean 	27.473684210526
scalar Network.dyn_peer[382] 	lookupTimeSig:mean 	3.9
scalar Network.dyn_peer[382] 	lookupStabilitySig:mean 	0.97568311774045
scalar Network.dyn_peer[382] 	lookupHopsSig:mean 	38.045454545455
scalar Network.dyn_peer[383] 	lookupTimeSig:mean 	3.3
scalar Network.dyn_peer[383] 	lookupStabilitySig:mean 	0.97964091209229
scalar Network.dyn_peer[383] 	lookupHopsSig:mean 	32.04
scalar Network.dyn_peer[384] 	lookupTimeSig:mean 	2.6333333333333
scalar Network.dyn_peer[384] 	lookupStabilitySig:mean 	0.97201779101133
scalar Network.dyn_peer[384] 	lookupHopsSig:mean 	25.380952380952
scalar Network.dyn_peer[385] 	lookupTimeSig:mean 	1.55
scalar Network.dyn_peer[385] 	lookupStabilitySig:mean 	0.96684057760285
scalar Network.dyn_peer[385] 	lookupHopsSig:mean 	14.625
scalar Network.dyn_peer[386] 	lookupTimeSig:mean 	2.775
scalar Network.dyn_peer[386] 	lookupStabilitySig:mean 	0.97287528857123
scalar Network.dyn_peer[386] 	lookupHopsSig:mean 	26.8
scalar Network.dyn_peer[387] 	lookupTimeSig:mean 	3.1380952380952
scalar Network.dyn_peer[387] 	lookupStabilitySig:mean 	0.97647540901588
scalar Network.dyn_peer[387] 	lookupHopsSig:mean 	30.428571428571
scalar Network.dyn_peer[388] 	lookupTimeSig:mean 	3.1304347826087
scalar Network.dyn_peer[388] 	lookupStabilitySig:mean 	0.97491075111168
scalar Network.dyn_peer[388] 	lookupHopsSig:mean 	30.347826086957
scalar Network.dyn_peer[389] 	lookupTimeSig:mean 	3.09375
scalar Network.dyn_peer[389] 	lookupStabilitySig:mean 	0.97128823206003
scalar Network.dyn_peer[389] 	lookupHopsSig:mean 	30
scalar Network.dyn_peer[390] 	lookupTimeSig:mean 	3.7714285714286
scalar Network.dyn_peer[390] 	lookupStabilitySig:mean 	0.98236481047435
scalar Network.dyn_peer[390] 	lookupHopsSig:mean 	36.742857142857
scalar Network.dyn_peer[391] 	lookupTimeSig:mean 	2.8333333333333
scalar Network.dyn_peer[391] 	lookupStabilitySig:mean 	0.9796245026082
scalar Network.dyn_peer[391] 	lookupHopsSig:mean 	27.375
scalar Network.dyn_peer[392] 	lookupTimeSig:mean 	3.1
scalar Network.dyn_peer[392] 	lookupStabilitySig:mean 	0.97571960481582
scalar Network.dyn_peer[392] 	lookupHopsSig:mean 	30.05
scalar Network.dyn_peer[393] 	lookupTimeSig:mean 	2.7090909090909
scalar Network.dyn_peer[393] 	lookupStabilitySig:mean 	0.97227442755618
scalar Network.dyn_peer[393] 	lookupHopsSig:mean 	26.136363636364
scalar Network.dyn_peer[394] 	lookupTimeSig:mean 	2.8
scalar Network.dyn_peer[394] 	lookupStabilitySig:mean 	0.96157516678795
scalar Network.dyn_peer[394] 	lookupHopsSig:mean 	27.1
scalar Network.dyn_peer[395] 	lookupTimeSig:mean 	3.6263157894737
scalar Network.dyn_peer[395] 	lookupStabilitySig:mean 	0.97170396514335
scalar Network.dyn_peer[395] 	lookupHopsSig:mean 	35.315789473684
scalar Network.dyn_peer[396] 	lookupTimeSig:mean 	4.9185185185185
scalar Network.dyn_peer[396] 	lookupStabilitySig:mean 	0.9815159076911
scalar Network.dyn_peer[396] 	lookupHopsSig:mean 	48.222222222222
scalar Network.dyn_peer[397] 	lookupTimeSig:mean 	3.5277777777778
scalar Network.dyn_peer[397] 	lookupStabilitySig:mean 	0.97483828773774
scalar Network.dyn_peer[397] 	lookupHopsSig:mean 	34.333333333333
scalar Network.dyn_peer[398] 	lookupTimeSig:mean 	3.86
scalar Network.dyn_peer[398] 	lookupStabilitySig:mean 	0.96960434662178
scalar Network.dyn_peer[398] 	lookupHopsSig:mean 	37.666666666667
scalar Network.dyn_peer[399] 	lookupTimeSig:mean 	3.1411764705882
scalar Network.dyn_peer[399] 	lookupStabilitySig:mean 	0.97168384877253
scalar Network.dyn_peer[399] 	lookupHopsSig:mean 	30.470588235294
scalar Network.dyn_peer[400] 	lookupTimeSig:mean 	6.0636363636364
scalar Network.dyn_peer[400] 	lookupStabilitySig:mean 	0.96897567626597
scalar Network.dyn_peer[400] 	lookupHopsSig:mean 	59.727272727273
scalar Network.dyn_peer[401] 	lookupTimeSig:mean 	3.7758620689655
scalar Network.dyn_peer[401] 	lookupStabilitySig:mean 	0.97832146212298
scalar Network.dyn_peer[401] 	lookupHopsSig:mean 	36.793103448276
scalar Network.dyn_peer[402] 	lookupTimeSig:mean 	3.436
scalar Network.dyn_peer[402] 	lookupStabilitySig:mean 	0.98156854714791
scalar Network.dyn_peer[402] 	lookupHopsSig:mean 	33.4
scalar Network.dyn_peer[403] 	lookupTimeSig:mean 	2.3454545454545
scalar Network.dyn_peer[403] 	lookupStabilitySig:mean 	0.97661737322977
scalar Network.dyn_peer[403] 	lookupHopsSig:mean 	22.545454545455
scalar Network.dyn_peer[404] 	lookupTimeSig:mean 	3.2363636363636
scalar Network.dyn_peer[404] 	lookupStabilitySig:mean 	0.97461674515878
scalar Network.dyn_peer[404] 	lookupHopsSig:mean 	31.409090909091
[...]
scalar Network.dyn_peer[9898] 	lookupHopsSig:mean 	86.666666666667
scalar Network.dyn_peer[9899] 	lookupTimeSig:mean 	5.5428571428571
scalar Network.dyn_peer[9899] 	lookupStabilitySig:mean 	0.99328592121934
scalar Network.dyn_peer[9899] 	lookupHopsSig:mean 	54.571428571429
scalar Network.dyn_peer[9900] 	lookupTimeSig:mean 	3.1285714285714
scalar Network.dyn_peer[9900] 	lookupStabilitySig:mean 	0.99592794625122
scalar Network.dyn_peer[9900] 	lookupHopsSig:mean 	30.428571428571
scalar Network.dyn_peer[9901] 	lookupTimeSig:mean 	4.7
scalar Network.dyn_peer[9901] 	lookupStabilitySig:mean 	0.99335264787078
scalar Network.dyn_peer[9901] 	lookupHopsSig:mean 	46.5
scalar Network.dyn_peer[9902] 	lookupTimeSig:mean 	5.7727272727273
scalar Network.dyn_peer[9902] 	lookupStabilitySig:mean 	0.99345782695507
scalar Network.dyn_peer[9902] 	lookupHopsSig:mean 	56.818181818182
scalar Network.dyn_peer[9903] 	lookupTimeSig:mean 	3.6692307692308
scalar Network.dyn_peer[9903] 	lookupStabilitySig:mean 	0.99568740850709
scalar Network.dyn_peer[9903] 	lookupHopsSig:mean 	35.769230769231
scalar Network.dyn_peer[9904] 	lookupTimeSig:mean 	4.1285714285714
scalar Network.dyn_peer[9904] 	lookupStabilitySig:mean 	0.9948134760073
scalar Network.dyn_peer[9904] 	lookupHopsSig:mean 	40.428571428571
scalar Network.dyn_peer[9905] 	lookupTimeSig:mean 	5.8333333333333
scalar Network.dyn_peer[9905] 	lookupStabilitySig:mean 	0.9928521355226
scalar Network.dyn_peer[9905] 	lookupHopsSig:mean 	57.5
scalar Network.dyn_peer[9906] 	lookupTimeSig:mean 	4.6142857142857
scalar Network.dyn_peer[9906] 	lookupStabilitySig:mean 	0.99424925223658
scalar Network.dyn_peer[9906] 	lookupHopsSig:mean 	45.285714285714
scalar Network.dyn_peer[9907] 	lookupTimeSig:mean 	4.9363636363636
scalar Network.dyn_peer[9907] 	lookupStabilitySig:mean 	0.99430391282394
scalar Network.dyn_peer[9907] 	lookupHopsSig:mean 	48.454545454545
scalar Network.dyn_peer[9908] 	lookupTimeSig:mean 	4.1333333333333
scalar Network.dyn_peer[9908] 	lookupStabilitySig:mean 	0.99468233077399
scalar Network.dyn_peer[9908] 	lookupHopsSig:mean 	40.5
scalar Network.dyn_peer[9909] 	lookupTimeSig:mean 	4.6285714285714
scalar Network.dyn_peer[9909] 	lookupStabilitySig:mean 	0.99423449353448
scalar Network.dyn_peer[9909] 	lookupHopsSig:mean 	45.428571428571
scalar Network.dyn_peer[9910] 	lookupTimeSig:mean 	5.0777777777778
scalar Network.dyn_peer[9910] 	lookupStabilitySig:mean 	0.99407437231599
scalar Network.dyn_peer[9910] 	lookupHopsSig:mean 	49.888888888889
scalar Network.dyn_peer[9911] 	lookupTimeSig:mean 	7.225
scalar Network.dyn_peer[9911] 	lookupStabilitySig:mean 	0.99177170914481
scalar Network.dyn_peer[9911] 	lookupHopsSig:mean 	71.375
scalar Network.dyn_peer[9912] 	lookupTimeSig:mean 	5.1285714285714
scalar Network.dyn_peer[9912] 	lookupStabilitySig:mean 	0.99372325825971
scalar Network.dyn_peer[9912] 	lookupHopsSig:mean 	50.428571428571
scalar Network.dyn_peer[9913] 	lookupTimeSig:mean 	4.3428571428571
scalar Network.dyn_peer[9913] 	lookupStabilitySig:mean 	0.99506900835383
scalar Network.dyn_peer[9913] 	lookupHopsSig:mean 	42.5
scalar Network.dyn_peer[9914] 	lookupTimeSig:mean 	3.2642857142857
scalar Network.dyn_peer[9914] 	lookupStabilitySig:mean 	0.99615387681739
scalar Network.dyn_peer[9914] 	lookupHopsSig:mean 	31.714285714286
scalar Network.dyn_peer[9915] 	lookupTimeSig:mean 	4.0222222222222
scalar Network.dyn_peer[9915] 	lookupStabilitySig:mean 	0.99507086240273
scalar Network.dyn_peer[9915] 	lookupHopsSig:mean 	39.333333333333
scalar Network.dyn_peer[9916] 	lookupTimeSig:mean 	4.4
scalar Network.dyn_peer[9916] 	lookupStabilitySig:mean 	0.99448745351817
scalar Network.dyn_peer[9916] 	lookupHopsSig:mean 	43.142857142857
scalar Network.dyn_peer[9917] 	lookupTimeSig:mean 	4.64
scalar Network.dyn_peer[9917] 	lookupStabilitySig:mean 	0.9945196171524
scalar Network.dyn_peer[9917] 	lookupHopsSig:mean 	45.5
scalar Network.dyn_peer[9918] 	lookupTimeSig:mean 	3.575
scalar Network.dyn_peer[9918] 	lookupStabilitySig:mean 	0.99575679343737
scalar Network.dyn_peer[9918] 	lookupHopsSig:mean 	34.833333333333
scalar Network.dyn_peer[9919] 	lookupTimeSig:mean 	6.7083333333333
scalar Network.dyn_peer[9919] 	lookupStabilitySig:mean 	0.99261755321641
scalar Network.dyn_peer[9919] 	lookupHopsSig:mean 	66.166666666667
scalar Network.dyn_peer[9920] 	lookupTimeSig:mean 	5.25
scalar Network.dyn_peer[9920] 	lookupStabilitySig:mean 	0.99309994617943
scalar Network.dyn_peer[9920] 	lookupHopsSig:mean 	51.75
scalar Network.dyn_peer[9921] 	lookupTimeSig:mean 	3.8923076923077
scalar Network.dyn_peer[9921] 	lookupStabilitySig:mean 	0.99546791847724
scalar Network.dyn_peer[9921] 	lookupHopsSig:mean 	38
scalar Network.dyn_peer[9922] 	lookupTimeSig:mean 	5.55
scalar Network.dyn_peer[9922] 	lookupStabilitySig:mean 	0.99277311237529
scalar Network.dyn_peer[9922] 	lookupHopsSig:mean 	54.75
scalar Network.dyn_peer[9923] 	lookupTimeSig:mean 	4.5
scalar Network.dyn_peer[9923] 	lookupStabilitySig:mean 	0.99382116606769
scalar Network.dyn_peer[9923] 	lookupHopsSig:mean 	44.333333333333
scalar Network.dyn_peer[9924] 	lookupTimeSig:mean 	5.92
scalar Network.dyn_peer[9924] 	lookupStabilitySig:mean 	0.9926288778428
scalar Network.dyn_peer[9924] 	lookupHopsSig:mean 	58.4
scalar Network.dyn_peer[9925] 	lookupTimeSig:mean 	5.26
scalar Network.dyn_peer[9925] 	lookupStabilitySig:mean 	0.99404856305046
scalar Network.dyn_peer[9925] 	lookupHopsSig:mean 	51.7
scalar Network.dyn_peer[9926] 	lookupTimeSig:mean 	6.525
scalar Network.dyn_peer[9926] 	lookupStabilitySig:mean 	0.99189154198393
scalar Network.dyn_peer[9926] 	lookupHopsSig:mean 	64.5
scalar Network.dyn_peer[9927] 	lookupTimeSig:mean 	5.0333333333333
scalar Network.dyn_peer[9927] 	lookupStabilitySig:mean 	0.99369313707575
scalar Network.dyn_peer[9927] 	lookupHopsSig:mean 	49.5
scalar Network.dyn_peer[9928] 	lookupTimeSig:mean 	4.3
scalar Network.dyn_peer[9928] 	lookupStabilitySig:mean 	0.99468983369297
scalar Network.dyn_peer[9928] 	lookupHopsSig:mean 	42.125
scalar Network.dyn_peer[9929] 	lookupTimeSig:mean 	6.2857142857143
scalar Network.dyn_peer[9929] 	lookupStabilitySig:mean 	0.99253684934229
scalar Network.dyn_peer[9929] 	lookupHopsSig:mean 	62
scalar Network.dyn_peer[9930] 	lookupTimeSig:mean 	4.0333333333333
scalar Network.dyn_peer[9930] 	lookupStabilitySig:mean 	0.99528706479274
scalar Network.dyn_peer[9930] 	lookupHopsSig:mean 	39.416666666667
scalar Network.dyn_peer[9931] 	lookupTimeSig:mean 	6.6222222222222
scalar Network.dyn_peer[9931] 	lookupStabilitySig:mean 	0.99250603204645
scalar Network.dyn_peer[9931] 	lookupHopsSig:mean 	65.333333333333
scalar Network.dyn_peer[9932] 	lookupTimeSig:mean 	5.025
scalar Network.dyn_peer[9932] 	lookupStabilitySig:mean 	0.99340119748376
scalar Network.dyn_peer[9932] 	lookupHopsSig:mean 	49.5
scalar Network.dyn_peer[9933] 	lookupTimeSig:mean 	3.7
scalar Network.dyn_peer[9933] 	lookupStabilitySig:mean 	0.99496186926262
scalar Network.dyn_peer[9933] 	lookupHopsSig:mean 	36.25
scalar Network.dyn_peer[9934] 	lookupTimeSig:mean 	6.84
scalar Network.dyn_peer[9934] 	lookupStabilitySig:mean 	0.99158359225839
scalar Network.dyn_peer[9934] 	lookupHopsSig:mean 	67.6
scalar Network.dyn_peer[9935] 	lookupTimeSig:mean 	5.4454545454545
scalar Network.dyn_peer[9935] 	lookupStabilitySig:mean 	0.99380406589163
scalar Network.dyn_peer[9935] 	lookupHopsSig:mean 	53.545454545455
scalar Network.dyn_peer[9936] 	lookupTimeSig:mean 	4.8642857142857
scalar Network.dyn_peer[9936] 	lookupStabilitySig:mean 	0.99455910939391
scalar Network.dyn_peer[9936] 	lookupHopsSig:mean 	47.714285714286
scalar Network.dyn_peer[9937] 	lookupTimeSig:mean 	4.8846153846154
scalar Network.dyn_peer[9937] 	lookupStabilitySig:mean 	0.99450799620424
scalar Network.dyn_peer[9937] 	lookupHopsSig:mean 	47.923076923077
scalar Network.dyn_peer[9938] 	lookupTimeSig:mean 	3.4714285714286
scalar Network.dyn_peer[9938] 	lookupStabilitySig:mean 	0.99552047738273
scalar Network.dyn_peer[9938] 	lookupHopsSig:mean 	33.857142857143
scalar Network.dyn_peer[9939] 	lookupTimeSig:mean 	4.4857142857143
scalar Network.dyn_peer[9939] 	lookupStabilitySig:mean 	0.99439659042816
scalar Network.dyn_peer[9939] 	lookupHopsSig:mean 	44
scalar Network.dyn_peer[9940] 	lookupTimeSig:mean 	6.42
scalar Network.dyn_peer[9940] 	lookupStabilitySig:mean 	0.99214297905564
scalar Network.dyn_peer[9940] 	lookupHopsSig:mean 	63.4
scalar Network.dyn_peer[9941] 	lookupTimeSig:mean 	4.8875
scalar Network.dyn_peer[9941] 	lookupStabilitySig:mean 	0.99411563531612
scalar Network.dyn_peer[9941] 	lookupHopsSig:mean 	48
scalar Network.dyn_peer[9942] 	lookupTimeSig:mean 	3.6888888888889
scalar Network.dyn_peer[9942] 	lookupStabilitySig:mean 	0.9954502883419
scalar Network.dyn_peer[9942] 	lookupHopsSig:mean 	36
scalar Network.dyn_peer[9943] 	lookupTimeSig:mean 	4.6857142857143
scalar Network.dyn_peer[9943] 	lookupStabilitySig:mean 	0.99419984580683
scalar Network.dyn_peer[9943] 	lookupHopsSig:mean 	46
scalar Network.dyn_peer[9944] 	lookupTimeSig:mean 	4.66
scalar Network.dyn_peer[9944] 	lookupStabilitySig:mean 	0.99397004849743
scalar Network.dyn_peer[9944] 	lookupHopsSig:mean 	45.8
scalar Network.dyn_peer[9945] 	lookupTimeSig:mean 	5.525
scalar Network.dyn_peer[9945] 	lookupStabilitySig:mean 	0.99284493629239
scalar Network.dyn_peer[9945] 	lookupHopsSig:mean 	54.5
scalar Network.dyn_peer[9946] 	lookupTimeSig:mean 	6.1555555555556
scalar Network.dyn_peer[9946] 	lookupStabilitySig:mean 	0.99293903137247
scalar Network.dyn_peer[9946] 	lookupHopsSig:mean 	60.666666666667
scalar Network.dyn_peer[9947] 	lookupTimeSig:mean 	6.1111111111111
scalar Network.dyn_peer[9947] 	lookupStabilitySig:mean 	0.99311642128871
scalar Network.dyn_peer[9947] 	lookupHopsSig:mean 	60.222222222222
scalar Network.dyn_peer[9948] 	lookupTimeSig:mean 	4.7666666666667
scalar Network.dyn_peer[9948] 	lookupStabilitySig:mean 	0.99350463521356
scalar Network.dyn_peer[9948] 	lookupHopsSig:mean 	47
scalar Network.dyn_peer[9949] 	lookupTimeSig:mean 	7.2166666666667
scalar Network.dyn_peer[9949] 	lookupStabilitySig:mean 	0.99218882880329
scalar Network.dyn_peer[9949] 	lookupHopsSig:mean 	71.25
scalar Network.dyn_peer[9950] 	lookupTimeSig:mean 	4.1166666666667
scalar Network.dyn_peer[9950] 	lookupStabilitySig:mean 	0.99468583536024
scalar Network.dyn_peer[9950] 	lookupHopsSig:mean 	40.333333333333
scalar Network.dyn_peer[9951] 	lookupTimeSig:mean 	4.4333333333333
scalar Network.dyn_peer[9951] 	lookupStabilitySig:mean 	0.99435668485239
scalar Network.dyn_peer[9951] 	lookupHopsSig:mean 	43.5
scalar Network.dyn_peer[9952] 	lookupTimeSig:mean 	5.46
scalar Network.dyn_peer[9952] 	lookupStabilitySig:mean 	0.99317583627999
scalar Network.dyn_peer[9952] 	lookupHopsSig:mean 	53.8
scalar Network.dyn_peer[9953] 	lookupTimeSig:mean 	7.1
scalar Network.dyn_peer[9953] 	lookupStabilitySig:mean 	0.99229563117842
scalar Network.dyn_peer[9953] 	lookupHopsSig:mean 	70.083333333333
scalar Network.dyn_peer[9954] 	lookupTimeSig:mean 	6.525
scalar Network.dyn_peer[9954] 	lookupStabilitySig:mean 	0.99175225698855
scalar Network.dyn_peer[9954] 	lookupHopsSig:mean 	64.5
scalar Network.dyn_peer[9955] 	lookupTimeSig:mean 	5.9
scalar Network.dyn_peer[9955] 	lookupStabilitySig:mean 	0.99307080072218
scalar Network.dyn_peer[9955] 	lookupHopsSig:mean 	58.142857142857
scalar Network.dyn_peer[9956] 	lookupTimeSig:mean 	3.72
scalar Network.dyn_peer[9956] 	lookupStabilitySig:mean 	0.99577670362002
scalar Network.dyn_peer[9956] 	lookupHopsSig:mean 	36.266666666667
scalar Network.dyn_peer[9957] 	lookupTimeSig:mean 	5.9428571428571
scalar Network.dyn_peer[9957] 	lookupStabilitySig:mean 	0.99296048443232
scalar Network.dyn_peer[9957] 	lookupHopsSig:mean 	58.571428571429
scalar Network.dyn_peer[9958] 	lookupTimeSig:mean 	5.5235294117647
scalar Network.dyn_peer[9958] 	lookupStabilitySig:mean 	0.99403071478831
scalar Network.dyn_peer[9958] 	lookupHopsSig:mean 	54.294117647059
scalar Network.dyn_peer[9959] 	lookupTimeSig:mean 	5.33
scalar Network.dyn_peer[9959] 	lookupStabilitySig:mean 	0.99386489146855
scalar Network.dyn_peer[9959] 	lookupHopsSig:mean 	52.4
scalar Network.dyn_peer[9960] 	lookupTimeSig:mean 	7.35
scalar Network.dyn_peer[9960] 	lookupStabilitySig:mean 	0.99009153060615
scalar Network.dyn_peer[9960] 	lookupHopsSig:mean 	73
scalar Network.dyn_peer[9961] 	lookupTimeSig:mean 	6.0125
scalar Network.dyn_peer[9961] 	lookupStabilitySig:mean 	0.99296289365157
scalar Network.dyn_peer[9961] 	lookupHopsSig:mean 	59.25
scalar Network.dyn_peer[9962] 	lookupTimeSig:mean 	6.4125
scalar Network.dyn_peer[9962] 	lookupStabilitySig:mean 	0.99259319926932
scalar Network.dyn_peer[9962] 	lookupHopsSig:mean 	63.25
scalar Network.dyn_peer[9963] 	lookupTimeSig:mean 	7.5
scalar Network.dyn_peer[9963] 	lookupStabilitySig:mean 	0.99072864174377
scalar Network.dyn_peer[9963] 	lookupHopsSig:mean 	74.25
scalar Network.dyn_peer[9964] 	lookupTimeSig:mean 	4.7857142857143
scalar Network.dyn_peer[9964] 	lookupStabilitySig:mean 	0.99410252796952
scalar Network.dyn_peer[9964] 	lookupHopsSig:mean 	47
scalar Network.dyn_peer[9965] 	lookupTimeSig:mean 	4.1857142857143
scalar Network.dyn_peer[9965] 	lookupStabilitySig:mean 	0.99473705595093
scalar Network.dyn_peer[9965] 	lookupHopsSig:mean 	41
scalar Network.dyn_peer[9966] 	lookupTimeSig:mean 	3.7461538461538
scalar Network.dyn_peer[9966] 	lookupStabilitySig:mean 	0.99563125769894
scalar Network.dyn_peer[9966] 	lookupHopsSig:mean 	36.538461538462
scalar Network.dyn_peer[9967] 	lookupTimeSig:mean 	7.275
scalar Network.dyn_peer[9967] 	lookupStabilitySig:mean 	0.99175336526241
scalar Network.dyn_peer[9967] 	lookupHopsSig:mean 	71.875
scalar Network.dyn_peer[9968] 	lookupTimeSig:mean 	3.54
scalar Network.dyn_peer[9968] 	lookupStabilitySig:mean 	0.99567713770084
scalar Network.dyn_peer[9968] 	lookupHopsSig:mean 	34.5
scalar Network.dyn_peer[9969] 	lookupTimeSig:mean 	4.7
scalar Network.dyn_peer[9969] 	lookupStabilitySig:mean 	0.99419128312729
scalar Network.dyn_peer[9969] 	lookupHopsSig:mean 	46.142857142857
scalar Network.dyn_peer[9970] 	lookupTimeSig:mean 	7.4222222222222
scalar Network.dyn_peer[9970] 	lookupStabilitySig:mean 	0.99168509084524
scalar Network.dyn_peer[9970] 	lookupHopsSig:mean 	73.333333333333
scalar Network.dyn_peer[9971] 	lookupTimeSig:mean 	5.875
scalar Network.dyn_peer[9971] 	lookupStabilitySig:mean 	0.99323117309541
scalar Network.dyn_peer[9971] 	lookupHopsSig:mean 	57.875
scalar Network.dyn_peer[9972] 	lookupTimeSig:mean 	5.9846153846154
scalar Network.dyn_peer[9972] 	lookupStabilitySig:mean 	0.99340119898821
scalar Network.dyn_peer[9972] 	lookupHopsSig:mean 	58.923076923077
scalar Network.dyn_peer[9973] 	lookupTimeSig:mean 	5.9142857142857
scalar Network.dyn_peer[9973] 	lookupStabilitySig:mean 	0.99295080117216
scalar Network.dyn_peer[9973] 	lookupHopsSig:mean 	58.285714285714
scalar Network.dyn_peer[9974] 	lookupTimeSig:mean 	4.5285714285714
scalar Network.dyn_peer[9974] 	lookupStabilitySig:mean 	0.99438153413524
scalar Network.dyn_peer[9974] 	lookupHopsSig:mean 	44.428571428571
scalar Network.dyn_peer[9975] 	lookupTimeSig:mean 	6.5714285714286
scalar Network.dyn_peer[9975] 	lookupStabilitySig:mean 	0.99226454984663
scalar Network.dyn_peer[9975] 	lookupHopsSig:mean 	64.857142857143
scalar Network.dyn_peer[9976] 	lookupTimeSig:mean 	4.6181818181818
scalar Network.dyn_peer[9976] 	lookupStabilitySig:mean 	0.99468373515728
scalar Network.dyn_peer[9976] 	lookupHopsSig:mean 	45.272727272727
scalar Network.dyn_peer[9977] 	lookupTimeSig:mean 	4.5230769230769
scalar Network.dyn_peer[9977] 	lookupStabilitySig:mean 	0.99486328322046
scalar Network.dyn_peer[9977] 	lookupHopsSig:mean 	44.307692307692
scalar Network.dyn_peer[9978] 	lookupTimeSig:mean 	3.9875
scalar Network.dyn_peer[9978] 	lookupStabilitySig:mean 	0.99507019598968
scalar Network.dyn_peer[9978] 	lookupHopsSig:mean 	39
scalar Network.dyn_peer[9979] 	lookupTimeSig:mean 	5.5111111111111
scalar Network.dyn_peer[9979] 	lookupStabilitySig:mean 	0.9935863185674
scalar Network.dyn_peer[9979] 	lookupHopsSig:mean 	54.222222222222
scalar Network.dyn_peer[9980] 	lookupTimeSig:mean 	3.4777777777778
scalar Network.dyn_peer[9980] 	lookupStabilitySig:mean 	0.99568008137349
scalar Network.dyn_peer[9980] 	lookupHopsSig:mean 	33.888888888889
scalar Network.dyn_peer[9981] 	lookupTimeSig:mean 	4.9625
scalar Network.dyn_peer[9981] 	lookupStabilitySig:mean 	0.99403600019286
scalar Network.dyn_peer[9981] 	lookupHopsSig:mean 	48.75
scalar Network.dyn_peer[9982] 	lookupTimeSig:mean 	2.8428571428571
scalar Network.dyn_peer[9982] 	lookupStabilitySig:mean 	0.99629470700997
scalar Network.dyn_peer[9982] 	lookupHopsSig:mean 	27.571428571429
scalar Network.dyn_peer[9983] 	lookupTimeSig:mean 	4.3722222222222
scalar Network.dyn_peer[9983] 	lookupStabilitySig:mean 	0.99521750967445
scalar Network.dyn_peer[9983] 	lookupHopsSig:mean 	42.777777777778
scalar Network.dyn_peer[9984] 	lookupTimeSig:mean 	4.8571428571429
scalar Network.dyn_peer[9984] 	lookupStabilitySig:mean 	0.99408387469261
scalar Network.dyn_peer[9984] 	lookupHopsSig:mean 	47.714285714286
scalar Network.dyn_peer[9985] 	lookupTimeSig:mean 	4.475
scalar Network.dyn_peer[9985] 	lookupStabilitySig:mean 	0.99455590345315
scalar Network.dyn_peer[9985] 	lookupHopsSig:mean 	43.875
scalar Network.dyn_peer[9986] 	lookupTimeSig:mean 	6.94
scalar Network.dyn_peer[9986] 	lookupStabilitySig:mean 	0.99228790911147
scalar Network.dyn_peer[9986] 	lookupHopsSig:mean 	68.5
scalar Network.dyn_peer[9987] 	lookupTimeSig:mean 	2.8444444444444
scalar Network.dyn_peer[9987] 	lookupStabilitySig:mean 	0.99640671082953
scalar Network.dyn_peer[9987] 	lookupHopsSig:mean 	27.555555555556
scalar Network.dyn_peer[9988] 	lookupTimeSig:mean 	5.375
scalar Network.dyn_peer[9988] 	lookupStabilitySig:mean 	0.99366544563964
scalar Network.dyn_peer[9988] 	lookupHopsSig:mean 	52.875
scalar Network.dyn_peer[9989] 	lookupTimeSig:mean 	4.7714285714286
scalar Network.dyn_peer[9989] 	lookupStabilitySig:mean 	0.9941538389373
scalar Network.dyn_peer[9989] 	lookupHopsSig:mean 	46.857142857143
scalar Network.dyn_peer[9990] 	lookupTimeSig:mean 	5.34
scalar Network.dyn_peer[9990] 	lookupStabilitySig:mean 	0.99388762337621
scalar Network.dyn_peer[9990] 	lookupHopsSig:mean 	52.5
scalar Network.dyn_peer[9991] 	lookupTimeSig:mean 	6.36
scalar Network.dyn_peer[9991] 	lookupStabilitySig:mean 	0.99216371867806
scalar Network.dyn_peer[9991] 	lookupHopsSig:mean 	62.8
scalar Network.dyn_peer[9992] 	lookupTimeSig:mean 	4.5
scalar Network.dyn_peer[9992] 	lookupStabilitySig:mean 	0.99429817854737
scalar Network.dyn_peer[9992] 	lookupHopsSig:mean 	44.166666666667
scalar Network.dyn_peer[9993] 	lookupTimeSig:mean 	4.72
scalar Network.dyn_peer[9993] 	lookupStabilitySig:mean 	0.99394386508502
scalar Network.dyn_peer[9993] 	lookupHopsSig:mean 	46.4
scalar Network.dyn_peer[9994] 	lookupTimeSig:mean 	6.0818181818182
scalar Network.dyn_peer[9994] 	lookupStabilitySig:mean 	0.99325052642433
scalar Network.dyn_peer[9994] 	lookupHopsSig:mean 	59.909090909091
scalar Network.dyn_peer[9995] 	lookupTimeSig:mean 	6.6111111111111
scalar Network.dyn_peer[9995] 	lookupStabilitySig:mean 	0.99250733104741
scalar Network.dyn_peer[9995] 	lookupHopsSig:mean 	65.222222222222
scalar Network.dyn_peer[9996] 	lookupTimeSig:mean 	4.7333333333333
scalar Network.dyn_peer[9996] 	lookupStabilitySig:mean 	0.99360970803536
scalar Network.dyn_peer[9996] 	lookupHopsSig:mean 	46.666666666667
scalar Network.dyn_peer[9997] 	lookupTimeSig:mean 	4.2
scalar Network.dyn_peer[9997] 	lookupStabilitySig:mean 	0.99452229212038
scalar Network.dyn_peer[9997] 	lookupHopsSig:mean 	41.2
scalar Network.dyn_peer[9998] 	lookupTimeSig:mean 	4.2875
scalar Network.dyn_peer[9998] 	lookupStabilitySig:mean 	0.99480541609228
scalar Network.dyn_peer[9998] 	lookupHopsSig:mean 	42
scalar Network.dyn_peer[9999] 	lookupTimeSig:mean 	5.7857142857143
scalar Network.dyn_peer[9999] 	lookupStabilitySig:mean 	0.99312534522531
scalar Network.dyn_peer[9999] 	lookupHopsSig:mean 	57
scalar Network.churner 	inGoingSizeSig:mean 	2064.7678232177
