version 2
run Stability-119-20130521-22:31:46-23591
attr configname Stability
attr datetime 20130521-22:31:46
attr experiment Stability
attr inifile omnetpp.ini
attr iterationvars $0=1
attr iterationvars2 "$0=1, $repetition=29"
attr measurement $0=1
attr network Network
attr processid 23591
attr repetition 29
attr replication #29
attr resultdir results
attr runnumber 119
attr seedset 119

scalar Network.dyn_peer[0] 	lookupHopsSig:mean 	7.8888888888889
scalar Network.dyn_peer[0] 	lookupTimeSig:mean 	0.88666666666667
scalar Network.dyn_peer[1] 	lookupHopsSig:mean 	7.2608695652174
scalar Network.dyn_peer[1] 	lookupTimeSig:mean 	0.82463768115942
scalar Network.dyn_peer[2] 	lookupHopsSig:mean 	9.7073170731707
scalar Network.dyn_peer[2] 	lookupTimeSig:mean 	1.0682926829268
scalar Network.dyn_peer[3] 	lookupHopsSig:mean 	6.4516129032258
scalar Network.dyn_peer[3] 	lookupTimeSig:mean 	0.74354838709677
scalar Network.dyn_peer[4] 	lookupHopsSig:mean 	7.0731707317073
scalar Network.dyn_peer[4] 	lookupTimeSig:mean 	0.80487804878049
scalar Network.dyn_peer[5] 	lookupHopsSig:mean 	3.9285714285714
scalar Network.dyn_peer[5] 	lookupTimeSig:mean 	0.48571428571429
scalar Network.dyn_peer[6] 	lookupHopsSig:mean 	7.625
scalar Network.dyn_peer[6] 	lookupTimeSig:mean 	0.859375
scalar Network.dyn_peer[7] 	lookupHopsSig:mean 	6.59375
scalar Network.dyn_peer[7] 	lookupTimeSig:mean 	0.75625
scalar Network.dyn_peer[8] 	lookupHopsSig:mean 	5
scalar Network.dyn_peer[8] 	lookupTimeSig:mean 	0.59583333333333
scalar Network.dyn_peer[9] 	lookupHopsSig:mean 	6.2368421052632
scalar Network.dyn_peer[9] 	lookupTimeSig:mean 	0.72105263157895
scalar Network.dyn_peer[10] 	lookupHopsSig:mean 	7.1
scalar Network.dyn_peer[10] 	lookupTimeSig:mean 	0.8075
scalar Network.dyn_peer[11] 	lookupHopsSig:mean 	6.7719298245614
scalar Network.dyn_peer[11] 	lookupTimeSig:mean 	0.77543859649123
scalar Network.dyn_peer[12] 	lookupHopsSig:mean 	8.6666666666667
scalar Network.dyn_peer[12] 	lookupTimeSig:mean 	0.96458333333333
scalar Network.dyn_peer[13] 	lookupHopsSig:mean 	8.3414634146341
scalar Network.dyn_peer[13] 	lookupTimeSig:mean 	0.93170731707317
scalar Network.dyn_peer[14] 	lookupHopsSig:mean 	8.1698113207547
scalar Network.dyn_peer[14] 	lookupTimeSig:mean 	0.91509433962264
scalar Network.dyn_peer[15] 	lookupHopsSig:mean 	7.027027027027
scalar Network.dyn_peer[15] 	lookupTimeSig:mean 	0.8
scalar Network.dyn_peer[16] 	lookupHopsSig:mean 	8.8108108108108
scalar Network.dyn_peer[16] 	lookupTimeSig:mean 	0.97837837837838
scalar Network.dyn_peer[17] 	lookupHopsSig:mean 	7.5263157894737
scalar Network.dyn_peer[17] 	lookupTimeSig:mean 	0.85
scalar Network.dyn_peer[18] 	lookupHopsSig:mean 	6.7297297297297
scalar Network.dyn_peer[18] 	lookupTimeSig:mean 	0.77027027027027
scalar Network.dyn_peer[19] 	lookupHopsSig:mean 	8.0983606557377
scalar Network.dyn_peer[19] 	lookupTimeSig:mean 	0.90819672131148
scalar Network.dyn_peer[20] 	lookupHopsSig:mean 	9.7714285714286
scalar Network.dyn_peer[20] 	lookupTimeSig:mean 	1.0742857142857
scalar Network.dyn_peer[21] 	lookupHopsSig:mean 	7.8076923076923
scalar Network.dyn_peer[21] 	lookupTimeSig:mean 	0.87884615384615
scalar Network.dyn_peer[22] 	lookupHopsSig:mean 	9.1904761904762
scalar Network.dyn_peer[22] 	lookupTimeSig:mean 	1.0166666666667
scalar Network.dyn_peer[23] 	lookupHopsSig:mean 	5.4615384615385
scalar Network.dyn_peer[23] 	lookupTimeSig:mean 	0.63846153846154
scalar Network.dyn_peer[24] 	lookupHopsSig:mean 	6.75
scalar Network.dyn_peer[24] 	lookupTimeSig:mean 	0.77
scalar Network.dyn_peer[25] 	lookupHopsSig:mean 	8.974358974359
scalar Network.dyn_peer[25] 	lookupTimeSig:mean 	0.9948717948718
scalar Network.dyn_peer[26] 	lookupHopsSig:mean 	8.4705882352941
scalar Network.dyn_peer[26] 	lookupTimeSig:mean 	0.94509803921569
scalar Network.dyn_peer[27] 	lookupHopsSig:mean 	8.8260869565217
scalar Network.dyn_peer[27] 	lookupTimeSig:mean 	0.98115942028986
scalar Network.dyn_peer[28] 	lookupHopsSig:mean 	9.2727272727273
scalar Network.dyn_peer[28] 	lookupTimeSig:mean 	1.0242424242424
scalar Network.dyn_peer[29] 	lookupHopsSig:mean 	10.631578947368
scalar Network.dyn_peer[29] 	lookupTimeSig:mean 	1.1605263157895
scalar Network.dyn_peer[30] 	lookupHopsSig:mean 	9.12
scalar Network.dyn_peer[30] 	lookupTimeSig:mean 	1.008
scalar Network.dyn_peer[31] 	lookupHopsSig:mean 	7.0434782608696
scalar Network.dyn_peer[31] 	lookupTimeSig:mean 	0.8
scalar Network.dyn_peer[32] 	lookupHopsSig:mean 	9.3055555555556
scalar Network.dyn_peer[32] 	lookupTimeSig:mean 	1.0277777777778
scalar Network.dyn_peer[33] 	lookupHopsSig:mean 	7.9
scalar Network.dyn_peer[33] 	lookupTimeSig:mean 	0.888
scalar Network.dyn_peer[34] 	lookupHopsSig:mean 	8.8604651162791
scalar Network.dyn_peer[34] 	lookupTimeSig:mean 	0.98372093023256
scalar Network.dyn_peer[35] 	lookupHopsSig:mean 	9.390625
scalar Network.dyn_peer[35] 	lookupTimeSig:mean 	1.0375
scalar Network.dyn_peer[36] 	lookupHopsSig:mean 	8.8235294117647
scalar Network.dyn_peer[36] 	lookupTimeSig:mean 	0.97941176470588
scalar Network.dyn_peer[37] 	lookupHopsSig:mean 	9.5
scalar Network.dyn_peer[37] 	lookupTimeSig:mean 	1.0454545454545
scalar Network.dyn_peer[38] 	lookupHopsSig:mean 	8.6896551724138
scalar Network.dyn_peer[38] 	lookupTimeSig:mean 	0.96551724137931
scalar Network.dyn_peer[39] 	lookupHopsSig:mean 	8.2285714285714
scalar Network.dyn_peer[39] 	lookupTimeSig:mean 	0.92
scalar Network.dyn_peer[40] 	lookupHopsSig:mean 	9.3461538461538
scalar Network.dyn_peer[40] 	lookupTimeSig:mean 	1.0307692307692
scalar Network.dyn_peer[41] 	lookupHopsSig:mean 	5.4444444444444
scalar Network.dyn_peer[41] 	lookupTimeSig:mean 	0.63333333333333
scalar Network.dyn_peer[42] 	lookupHopsSig:mean 	8.05
scalar Network.dyn_peer[42] 	lookupTimeSig:mean 	0.9025
scalar Network.dyn_peer[43] 	lookupHopsSig:mean 	8.25
scalar Network.dyn_peer[43] 	lookupTimeSig:mean 	0.91666666666667
scalar Network.dyn_peer[44] 	lookupHopsSig:mean 	8.4634146341463
scalar Network.dyn_peer[44] 	lookupTimeSig:mean 	0.94390243902439
scalar Network.dyn_peer[45] 	lookupHopsSig:mean 	9.4705882352941
scalar Network.dyn_peer[45] 	lookupTimeSig:mean 	1.0441176470588
scalar Network.dyn_peer[46] 	lookupHopsSig:mean 	6
scalar Network.dyn_peer[46] 	lookupTimeSig:mean 	0.69166666666667
scalar Network.dyn_peer[47] 	lookupHopsSig:mean 	8.2
scalar Network.dyn_peer[47] 	lookupTimeSig:mean 	0.915
scalar Network.dyn_peer[48] 	lookupHopsSig:mean 	10.904761904762
scalar Network.dyn_peer[48] 	lookupTimeSig:mean 	1.1857142857143
scalar Network.dyn_peer[49] 	lookupHopsSig:mean 	8.625
scalar Network.dyn_peer[49] 	lookupTimeSig:mean 	0.95833333333333
scalar Network.dyn_peer[50] 	lookupHopsSig:mean 	10.860465116279
scalar Network.dyn_peer[50] 	lookupTimeSig:mean 	1.1837209302326
scalar Network.dyn_peer[51] 	lookupHopsSig:mean 	7.8125
scalar Network.dyn_peer[51] 	lookupTimeSig:mean 	0.878125
scalar Network.dyn_peer[52] 	lookupHopsSig:mean 	6.4444444444444
scalar Network.dyn_peer[52] 	lookupTimeSig:mean 	0.73888888888889
scalar Network.dyn_peer[53] 	lookupHopsSig:mean 	7.9487179487179
scalar Network.dyn_peer[53] 	lookupTimeSig:mean 	0.89230769230769
scalar Network.dyn_peer[54] 	lookupHopsSig:mean 	6.195652173913
scalar Network.dyn_peer[54] 	lookupTimeSig:mean 	0.71739130434783
scalar Network.dyn_peer[55] 	lookupHopsSig:mean 	9.9642857142857
scalar Network.dyn_peer[55] 	lookupTimeSig:mean 	1.0928571428571
scalar Network.dyn_peer[56] 	lookupHopsSig:mean 	9.8913043478261
scalar Network.dyn_peer[56] 	lookupTimeSig:mean 	1.0869565217391
scalar Network.dyn_peer[57] 	lookupHopsSig:mean 	10.883720930233
scalar Network.dyn_peer[57] 	lookupTimeSig:mean 	1.1860465116279
scalar Network.dyn_peer[58] 	lookupHopsSig:mean 	8.551724137931
scalar Network.dyn_peer[58] 	lookupTimeSig:mean 	0.95172413793103
scalar Network.dyn_peer[59] 	lookupHopsSig:mean 	11.225
scalar Network.dyn_peer[59] 	lookupTimeSig:mean 	1.22
scalar Network.dyn_peer[60] 	lookupHopsSig:mean 	8.0857142857143
scalar Network.dyn_peer[60] 	lookupTimeSig:mean 	0.90571428571429
scalar Network.dyn_peer[61] 	lookupHopsSig:mean 	7.4186046511628
scalar Network.dyn_peer[61] 	lookupTimeSig:mean 	0.83953488372093
scalar Network.dyn_peer[62] 	lookupHopsSig:mean 	7.04
scalar Network.dyn_peer[62] 	lookupTimeSig:mean 	0.8
scalar Network.dyn_peer[63] 	lookupHopsSig:mean 	9.2608695652174
scalar Network.dyn_peer[63] 	lookupTimeSig:mean 	1.0239130434783
scalar Network.dyn_peer[64] 	lookupHopsSig:mean 	10.161290322581
scalar Network.dyn_peer[64] 	lookupTimeSig:mean 	1.1129032258065
scalar Network.dyn_peer[65] 	lookupHopsSig:mean 	9.4642857142857
scalar Network.dyn_peer[65] 	lookupTimeSig:mean 	1.0428571428571
scalar Network.dyn_peer[66] 	lookupHopsSig:mean 	10.894736842105
scalar Network.dyn_peer[66] 	lookupTimeSig:mean 	1.1842105263158
scalar Network.dyn_peer[67] 	lookupHopsSig:mean 	11.384615384615
scalar Network.dyn_peer[67] 	lookupTimeSig:mean 	1.2346153846154
scalar Network.dyn_peer[68] 	lookupHopsSig:mean 	7.2790697674419
scalar Network.dyn_peer[68] 	lookupTimeSig:mean 	0.82558139534884
scalar Network.dyn_peer[69] 	lookupHopsSig:mean 	9
scalar Network.dyn_peer[69] 	lookupTimeSig:mean 	0.9969696969697
scalar Network.dyn_peer[70] 	lookupHopsSig:mean 	8.8461538461538
scalar Network.dyn_peer[70] 	lookupTimeSig:mean 	0.97692307692308
scalar Network.dyn_peer[71] 	lookupHopsSig:mean 	6.4444444444444
scalar Network.dyn_peer[71] 	lookupTimeSig:mean 	0.73333333333333
scalar Network.dyn_peer[72] 	lookupHopsSig:mean 	8.4
scalar Network.dyn_peer[72] 	lookupTimeSig:mean 	0.935
scalar Network.dyn_peer[73] 	lookupHopsSig:mean 	9.2307692307692
scalar Network.dyn_peer[73] 	lookupTimeSig:mean 	1.0192307692308
scalar Network.dyn_peer[74] 	lookupHopsSig:mean 	11.294117647059
scalar Network.dyn_peer[74] 	lookupTimeSig:mean 	1.2235294117647
scalar Network.dyn_peer[75] 	lookupHopsSig:mean 	9.8222222222222
scalar Network.dyn_peer[75] 	lookupTimeSig:mean 	1.08
scalar Network.dyn_peer[76] 	lookupHopsSig:mean 	9.4871794871795
scalar Network.dyn_peer[76] 	lookupTimeSig:mean 	1.0461538461538
scalar Network.dyn_peer[77] 	lookupHopsSig:mean 	9.7857142857143
scalar Network.dyn_peer[77] 	lookupTimeSig:mean 	1.0714285714286
scalar Network.dyn_peer[78] 	lookupHopsSig:mean 	10.944444444444
scalar Network.dyn_peer[78] 	lookupTimeSig:mean 	1.1916666666667
scalar Network.dyn_peer[79] 	lookupHopsSig:mean 	4.1904761904762
scalar Network.dyn_peer[79] 	lookupTimeSig:mean 	0.51428571428571
scalar Network.dyn_peer[80] 	lookupHopsSig:mean 	6.6153846153846
scalar Network.dyn_peer[80] 	lookupTimeSig:mean 	0.75384615384615
scalar Network.dyn_peer[81] 	lookupHopsSig:mean 	6.1428571428571
scalar Network.dyn_peer[81] 	lookupTimeSig:mean 	0.70714285714286
scalar Network.dyn_peer[82] 	lookupHopsSig:mean 	12.244444444444
scalar Network.dyn_peer[82] 	lookupTimeSig:mean 	1.3222222222222
scalar Network.dyn_peer[83] 	lookupHopsSig:mean 	6.6521739130435
scalar Network.dyn_peer[83] 	lookupTimeSig:mean 	0.76086956521739
scalar Network.dyn_peer[84] 	lookupHopsSig:mean 	7.625
scalar Network.dyn_peer[84] 	lookupTimeSig:mean 	0.85625
scalar Network.dyn_peer[85] 	lookupHopsSig:mean 	8.4583333333333
scalar Network.dyn_peer[85] 	lookupTimeSig:mean 	0.94166666666667
scalar Network.dyn_peer[86] 	lookupHopsSig:mean 	7.962962962963
scalar Network.dyn_peer[86] 	lookupTimeSig:mean 	0.89259259259259
scalar Network.dyn_peer[87] 	lookupHopsSig:mean 	6.8837209302326
scalar Network.dyn_peer[87] 	lookupTimeSig:mean 	0.78604651162791
scalar Network.dyn_peer[88] 	lookupHopsSig:mean 	10.714285714286
scalar Network.dyn_peer[88] 	lookupTimeSig:mean 	1.169387755102
scalar Network.dyn_peer[89] 	lookupHopsSig:mean 	7.1891891891892
scalar Network.dyn_peer[89] 	lookupTimeSig:mean 	0.81621621621622
scalar Network.dyn_peer[90] 	lookupHopsSig:mean 	4.1428571428571
scalar Network.dyn_peer[90] 	lookupTimeSig:mean 	0.5
scalar Network.dyn_peer[91] 	lookupHopsSig:mean 	8.2222222222222
scalar Network.dyn_peer[91] 	lookupTimeSig:mean 	0.91666666666667
scalar Network.dyn_peer[92] 	lookupHopsSig:mean 	5.2
scalar Network.dyn_peer[92] 	lookupTimeSig:mean 	0.6
scalar Network.dyn_peer[93] 	lookupHopsSig:mean 	7.2962962962963
scalar Network.dyn_peer[93] 	lookupTimeSig:mean 	0.82592592592593
scalar Network.dyn_peer[94] 	lookupHopsSig:mean 	8
scalar Network.dyn_peer[94] 	lookupTimeSig:mean 	0.89230769230769
scalar Network.dyn_peer[95] 	lookupHopsSig:mean 	7.6923076923077
scalar Network.dyn_peer[95] 	lookupTimeSig:mean 	0.86666666666667
scalar Network.dyn_peer[96] 	lookupHopsSig:mean 	5.6428571428571
scalar Network.dyn_peer[96] 	lookupTimeSig:mean 	0.65714285714286
scalar Network.dyn_peer[97] 	lookupHopsSig:mean 	7
scalar Network.dyn_peer[97] 	lookupTimeSig:mean 	0.78
scalar Network.dyn_peer[98] 	lookupHopsSig:mean 	8.4193548387097
scalar Network.dyn_peer[98] 	lookupTimeSig:mean 	0.93870967741935
scalar Network.dyn_peer[99] 	lookupHopsSig:mean 	8.875
scalar Network.dyn_peer[99] 	lookupTimeSig:mean 	0.98125
scalar Network.dyn_peer[100] 	lookupHopsSig:mean 	4.5555555555556
scalar Network.dyn_peer[100] 	lookupTimeSig:mean 	0.54444444444444
scalar Network.dyn_peer[101] 	lookupHopsSig:mean 	9.1724137931034
scalar Network.dyn_peer[101] 	lookupTimeSig:mean 	1.0137931034483
scalar Network.dyn_peer[102] 	lookupHopsSig:mean 	7.5333333333333
scalar Network.dyn_peer[102] 	lookupTimeSig:mean 	0.84666666666667
scalar Network.dyn_peer[103] 	lookupHopsSig:mean 	8.04
scalar Network.dyn_peer[103] 	lookupTimeSig:mean 	0.9
scalar Network.dyn_peer[104] 	lookupHopsSig:mean 	10.197530864198
scalar Network.dyn_peer[104] 	lookupTimeSig:mean 	1.1185185185185
scalar Network.dyn_peer[105] 	lookupHopsSig:mean 	10.375
scalar Network.dyn_peer[105] 	lookupTimeSig:mean 	1.125
scalar Network.dyn_peer[106] 	lookupHopsSig:mean 	9.8484848484848
scalar Network.dyn_peer[106] 	lookupTimeSig:mean 	1.0818181818182
scalar Network.dyn_peer[107] 	lookupHopsSig:mean 	5.5333333333333
scalar Network.dyn_peer[107] 	lookupTimeSig:mean 	0.64666666666667
scalar Network.dyn_peer[108] 	lookupHopsSig:mean 	9.8846153846154
scalar Network.dyn_peer[108] 	lookupTimeSig:mean 	1.0846153846154
scalar Network.dyn_peer[109] 	lookupHopsSig:mean 	7.08
scalar Network.dyn_peer[109] 	lookupTimeSig:mean 	0.804
scalar Network.dyn_peer[110] 	lookupHopsSig:mean 	8.3269230769231
scalar Network.dyn_peer[110] 	lookupTimeSig:mean 	0.93076923076923
scalar Network.dyn_peer[111] 	lookupHopsSig:mean 	8.375
scalar Network.dyn_peer[111] 	lookupTimeSig:mean 	0.935
scalar Network.dyn_peer[112] 	lookupHopsSig:mean 	11.9
scalar Network.dyn_peer[112] 	lookupTimeSig:mean 	1.2866666666667
scalar Network.dyn_peer[113] 	lookupHopsSig:mean 	8.1428571428571
scalar Network.dyn_peer[113] 	lookupTimeSig:mean 	0.91071428571429
scalar Network.dyn_peer[114] 	lookupHopsSig:mean 	4
scalar Network.dyn_peer[114] 	lookupTimeSig:mean 	0.48571428571429
scalar Network.dyn_peer[115] 	lookupHopsSig:mean 	5.3333333333333
scalar Network.dyn_peer[115] 	lookupTimeSig:mean 	0.62777777777778
scalar Network.dyn_peer[116] 	lookupHopsSig:mean 	6.1818181818182
scalar Network.dyn_peer[116] 	lookupTimeSig:mean 	0.70909090909091
scalar Network.dyn_peer[117] 	lookupHopsSig:mean 	10.366666666667
scalar Network.dyn_peer[117] 	lookupTimeSig:mean 	1.1333333333333
scalar Network.dyn_peer[118] 	lookupHopsSig:mean 	9.9459459459459
scalar Network.dyn_peer[118] 	lookupTimeSig:mean 	1.0918918918919
scalar Network.dyn_peer[119] 	lookupHopsSig:mean 	10.435897435897
scalar Network.dyn_peer[119] 	lookupTimeSig:mean 	1.1410256410256
scalar Network.dyn_peer[120] 	lookupHopsSig:mean 	9.2173913043478
scalar Network.dyn_peer[120] 	lookupTimeSig:mean 	1.0173913043478
scalar Network.dyn_peer[121] 	lookupHopsSig:mean 	10.018518518519
scalar Network.dyn_peer[121] 	lookupTimeSig:mean 	1.1
scalar Network.dyn_peer[122] 	lookupHopsSig:mean 	11
scalar Network.dyn_peer[122] 	lookupTimeSig:mean 	1.1941176470588
scalar Network.dyn_peer[123] 	lookupHopsSig:mean 	6.448275862069
scalar Network.dyn_peer[123] 	lookupTimeSig:mean 	0.74137931034483
scalar Network.dyn_peer[124] 	lookupHopsSig:mean 	11.4375
scalar Network.dyn_peer[124] 	lookupTimeSig:mean 	1.240625
scalar Network.dyn_peer[125] 	lookupHopsSig:mean 	6
scalar Network.dyn_peer[125] 	lookupTimeSig:mean 	0.675
scalar Network.dyn_peer[126] 	lookupHopsSig:mean 	3.875
scalar Network.dyn_peer[126] 	lookupTimeSig:mean 	0.48125
scalar Network.dyn_peer[127] 	lookupHopsSig:mean 	6.2
scalar Network.dyn_peer[127] 	lookupTimeSig:mean 	0.71333333333333
scalar Network.dyn_peer[128] 	lookupHopsSig:mean 	9.2325581395349
scalar Network.dyn_peer[128] 	lookupTimeSig:mean 	1.0209302325581
scalar Network.dyn_peer[129] 	lookupHopsSig:mean 	9.2258064516129
scalar Network.dyn_peer[129] 	lookupTimeSig:mean 	1.0193548387097
scalar Network.dyn_peer[130] 	lookupHopsSig:mean 	5.6666666666667
scalar Network.dyn_peer[130] 	lookupTimeSig:mean 	0.65
scalar Network.dyn_peer[131] 	lookupHopsSig:mean 	10.205882352941
scalar Network.dyn_peer[131] 	lookupTimeSig:mean 	1.1176470588235
scalar Network.dyn_peer[132] 	lookupHopsSig:mean 	10.823529411765
scalar Network.dyn_peer[132] 	lookupTimeSig:mean 	1.1764705882353
scalar Network.dyn_peer[133] 	lookupHopsSig:mean 	10.666666666667
scalar Network.dyn_peer[133] 	lookupTimeSig:mean 	1.1638888888889
scalar Network.dyn_peer[134] 	lookupHopsSig:mean 	11.51724137931
scalar Network.dyn_peer[134] 	lookupTimeSig:mean 	1.248275862069
scalar Network.dyn_peer[135] 	lookupHopsSig:mean 	11.75
scalar Network.dyn_peer[135] 	lookupTimeSig:mean 	1.27
scalar Network.dyn_peer[136] 	lookupHopsSig:mean 	8.8076923076923
scalar Network.dyn_peer[136] 	lookupTimeSig:mean 	0.97692307692308
scalar Network.dyn_peer[137] 	lookupHopsSig:mean 	8.5483870967742
scalar Network.dyn_peer[137] 	lookupTimeSig:mean 	0.95161290322581
scalar Network.dyn_peer[138] 	lookupHopsSig:mean 	4.2857142857143
scalar Network.dyn_peer[138] 	lookupTimeSig:mean 	0.51428571428571
scalar Network.dyn_peer[139] 	lookupHopsSig:mean 	6.4375
scalar Network.dyn_peer[139] 	lookupTimeSig:mean 	0.7375
scalar Network.dyn_peer[140] 	lookupHopsSig:mean 	9.8095238095238
scalar Network.dyn_peer[140] 	lookupTimeSig:mean 	1.0761904761905
scalar Network.dyn_peer[141] 	lookupHopsSig:mean 	11.923076923077
scalar Network.dyn_peer[141] 	lookupTimeSig:mean 	1.2884615384615
scalar Network.dyn_peer[142] 	lookupHopsSig:mean 	8.4545454545455
scalar Network.dyn_peer[142] 	lookupTimeSig:mean 	0.93636363636364
scalar Network.dyn_peer[143] 	lookupHopsSig:mean 	4.3333333333333
scalar Network.dyn_peer[143] 	lookupTimeSig:mean 	0.52222222222222
scalar Network.dyn_peer[144] 	lookupHopsSig:mean 	5.3333333333333
scalar Network.dyn_peer[144] 	lookupTimeSig:mean 	0.625
scalar Network.dyn_peer[145] 	lookupHopsSig:mean 	8.5925925925926
scalar Network.dyn_peer[145] 	lookupTimeSig:mean 	0.95555555555556
scalar Network.dyn_peer[146] 	lookupHopsSig:mean 	10.862068965517
scalar Network.dyn_peer[146] 	lookupTimeSig:mean 	1.1827586206897
scalar Network.dyn_peer[147] 	lookupHopsSig:mean 	11.148148148148
scalar Network.dyn_peer[147] 	lookupTimeSig:mean 	1.2111111111111
scalar Network.dyn_peer[148] 	lookupHopsSig:mean 	10.038461538462
scalar Network.dyn_peer[148] 	lookupTimeSig:mean 	1.1
scalar Network.dyn_peer[149] 	lookupHopsSig:mean 	9.6666666666667
scalar Network.dyn_peer[149] 	lookupTimeSig:mean 	1.0625
scalar Network.dyn_peer[150] 	lookupHopsSig:mean 	9.1818181818182
scalar Network.dyn_peer[150] 	lookupTimeSig:mean 	1.0136363636364
scalar Network.dyn_peer[151] 	lookupHopsSig:mean 	12.6
scalar Network.dyn_peer[151] 	lookupTimeSig:mean 	1.3533333333333
scalar Network.dyn_peer[152] 	lookupHopsSig:mean 	7.1428571428571
scalar Network.dyn_peer[152] 	lookupTimeSig:mean 	0.8
scalar Network.dyn_peer[153] 	lookupHopsSig:mean 	11.083333333333
scalar Network.dyn_peer[153] 	lookupTimeSig:mean 	1.2041666666667
scalar Network.dyn_peer[154] 	lookupHopsSig:mean 	5.3333333333333
scalar Network.dyn_peer[154] 	lookupTimeSig:mean 	0.61666666666667
scalar Network.dyn_peer[155] 	lookupHopsSig:mean 	8.7083333333333
scalar Network.dyn_peer[155] 	lookupTimeSig:mean 	0.96666666666667
scalar Network.dyn_peer[156] 	lookupHopsSig:mean 	5.1428571428571
scalar Network.dyn_peer[156] 	lookupTimeSig:mean 	0.6
scalar Network.dyn_peer[157] 	lookupHopsSig:mean 	12.529411764706
scalar Network.dyn_peer[157] 	lookupTimeSig:mean 	1.3470588235294
scalar Network.dyn_peer[158] 	lookupHopsSig:mean 	5.1818181818182
scalar Network.dyn_peer[158] 	lookupTimeSig:mean 	0.60909090909091
scalar Network.dyn_peer[159] 	lookupHopsSig:mean 	9.1538461538462
scalar Network.dyn_peer[159] 	lookupTimeSig:mean 	1.0076923076923
scalar Network.dyn_peer[160] 	lookupHopsSig:mean 	8.5142857142857
scalar Network.dyn_peer[160] 	lookupTimeSig:mean 	0.94857142857143
scalar Network.dyn_peer[161] 	lookupHopsSig:mean 	8.64
scalar Network.dyn_peer[161] 	lookupTimeSig:mean 	0.96
scalar Network.dyn_peer[162] 	lookupHopsSig:mean 	7.0769230769231
scalar Network.dyn_peer[162] 	lookupTimeSig:mean 	0.8
scalar Network.dyn_peer[163] 	lookupHopsSig:mean 	8.5
scalar Network.dyn_peer[163] 	lookupTimeSig:mean 	0.94545454545455
scalar Network.dyn_peer[164] 	lookupHopsSig:mean 	10.263157894737
scalar Network.dyn_peer[164] 	lookupTimeSig:mean 	1.1210526315789
scalar Network.dyn_peer[165] 	lookupHopsSig:mean 	11.967741935484
scalar Network.dyn_peer[165] 	lookupTimeSig:mean 	1.2935483870968
scalar Network.dyn_peer[166] 	lookupHopsSig:mean 	7.5
scalar Network.dyn_peer[166] 	lookupTimeSig:mean 	0.83333333333333
scalar Network.dyn_peer[167] 	lookupHopsSig:mean 	3
scalar Network.dyn_peer[167] 	lookupTimeSig:mean 	0.375
scalar Network.dyn_peer[168] 	lookupHopsSig:mean 	14.272727272727
scalar Network.dyn_peer[168] 	lookupTimeSig:mean 	1.5242424242424
scalar Network.dyn_peer[169] 	lookupHopsSig:mean 	9.4444444444444
scalar Network.dyn_peer[169] 	lookupTimeSig:mean 	1.0333333333333
scalar Network.dyn_peer[170] 	lookupHopsSig:mean 	8.4
scalar Network.dyn_peer[170] 	lookupTimeSig:mean 	0.936
scalar Network.dyn_peer[171] 	lookupHopsSig:mean 	5.5714285714286
scalar Network.dyn_peer[171] 	lookupTimeSig:mean 	0.64285714285714
scalar Network.dyn_peer[172] 	lookupHopsSig:mean 	7.1428571428571
scalar Network.dyn_peer[172] 	lookupTimeSig:mean 	0.8
scalar Network.dyn_peer[173] 	lookupHopsSig:mean 	9
scalar Network.dyn_peer[173] 	lookupTimeSig:mean 	0.99565217391304
scalar Network.dyn_peer[174] 	lookupHopsSig:mean 	7.7777777777778
scalar Network.dyn_peer[174] 	lookupTimeSig:mean 	0.87222222222222
scalar Network.dyn_peer[175] 	lookupHopsSig:mean 	12.227272727273
scalar Network.dyn_peer[175] 	lookupTimeSig:mean 	1.3204545454545
scalar Network.dyn_peer[176] 	lookupHopsSig:mean 	7
scalar Network.dyn_peer[176] 	lookupTimeSig:mean 	0.78333333333333
scalar Network.dyn_peer[177] 	lookupHopsSig:mean 	5.2857142857143
scalar Network.dyn_peer[177] 	lookupTimeSig:mean 	0.62142857142857
scalar Network.dyn_peer[178] 	lookupHopsSig:mean 	12.034482758621
scalar Network.dyn_peer[178] 	lookupTimeSig:mean 	1.3
scalar Network.dyn_peer[179] 	lookupHopsSig:mean 	7
scalar Network.dyn_peer[179] 	lookupTimeSig:mean 	0.7875
scalar Network.dyn_peer[180] 	lookupHopsSig:mean 	9.25
scalar Network.dyn_peer[180] 	lookupTimeSig:mean 	1.0125
scalar Network.dyn_peer[181] 	lookupHopsSig:mean 	5.125
scalar Network.dyn_peer[181] 	lookupTimeSig:mean 	0.6
scalar Network.dyn_peer[182] 	lookupHopsSig:mean 	10.071428571429
scalar Network.dyn_peer[182] 	lookupTimeSig:mean 	1.1035714285714
scalar Network.dyn_peer[183] 	lookupHopsSig:mean 	12.333333333333
scalar Network.dyn_peer[183] 	lookupTimeSig:mean 	1.330303030303
scalar Network.dyn_peer[184] 	lookupHopsSig:mean 	10.826086956522
scalar Network.dyn_peer[184] 	lookupTimeSig:mean 	1.1782608695652
scalar Network.dyn_peer[185] 	lookupHopsSig:mean 	8.8
scalar Network.dyn_peer[185] 	lookupTimeSig:mean 	0.97333333333333
scalar Network.dyn_peer[186] 	lookupHopsSig:mean 	8.92
scalar Network.dyn_peer[186] 	lookupTimeSig:mean 	0.988
scalar Network.dyn_peer[187] 	lookupHopsSig:mean 	8.4
scalar Network.dyn_peer[187] 	lookupTimeSig:mean 	0.93714285714286
scalar Network.dyn_peer[188] 	lookupHopsSig:mean 	5.9375
scalar Network.dyn_peer[188] 	lookupTimeSig:mean 	0.6875
scalar Network.dyn_peer[189] 	lookupHopsSig:mean 	9.7142857142857
scalar Network.dyn_peer[189] 	lookupTimeSig:mean 	1.0571428571429
scalar Network.dyn_peer[190] 	lookupHopsSig:mean 	9.4
scalar Network.dyn_peer[190] 	lookupTimeSig:mean 	1.035
scalar Network.dyn_peer[191] 	lookupHopsSig:mean 	7
scalar Network.dyn_peer[191] 	lookupTimeSig:mean 	0.7875
scalar Network.dyn_peer[192] 	lookupHopsSig:mean 	7.7777777777778
scalar Network.dyn_peer[192] 	lookupTimeSig:mean 	0.87407407407407
scalar Network.dyn_peer[193] 	lookupHopsSig:mean 	12.3
scalar Network.dyn_peer[193] 	lookupTimeSig:mean 	1.3266666666667
scalar Network.dyn_peer[194] 	lookupHopsSig:mean 	7.4
scalar Network.dyn_peer[194] 	lookupTimeSig:mean 	0.82
scalar Network.dyn_peer[195] 	lookupHopsSig:mean 	9.8076923076923
scalar Network.dyn_peer[195] 	lookupTimeSig:mean 	1.0769230769231
scalar Network.dyn_peer[196] 	lookupHopsSig:mean 	3.5
scalar Network.dyn_peer[196] 	lookupTimeSig:mean 	0.43333333333333
scalar Network.dyn_peer[197] 	lookupHopsSig:mean 	7.4
scalar Network.dyn_peer[197] 	lookupTimeSig:mean 	0.82
scalar Network.dyn_peer[198] 	lookupHopsSig:mean 	6.4
scalar Network.dyn_peer[198] 	lookupTimeSig:mean 	0.73
scalar Network.dyn_peer[199] 	lookupHopsSig:mean 	11.095238095238
scalar Network.dyn_peer[199] 	lookupTimeSig:mean 	1.2047619047619
scalar Network.dyn_peer[200] 	lookupHopsSig:mean 	7.8333333333333
scalar Network.dyn_peer[200] 	lookupTimeSig:mean 	0.86666666666667
scalar Network.dyn_peer[201] 	lookupHopsSig:mean 	6.5384615384615
scalar Network.dyn_peer[201] 	lookupTimeSig:mean 	0.74615384615385
scalar Network.dyn_peer[202] 	lookupHopsSig:mean 	7.6666666666667
scalar Network.dyn_peer[202] 	lookupTimeSig:mean 	0.86
scalar Network.dyn_peer[203] 	lookupHopsSig:mean 	7
scalar Network.dyn_peer[203] 	lookupTimeSig:mean 	0.78571428571429
scalar Network.dyn_peer[204] 	lookupHopsSig:mean 	7.375
scalar Network.dyn_peer[204] 	lookupTimeSig:mean 	0.825
scalar Network.dyn_peer[205] 	lookupHopsSig:mean 	9.4285714285714
scalar Network.dyn_peer[205] 	lookupTimeSig:mean 	1.0357142857143
scalar Network.dyn_peer[206] 	lookupHopsSig:mean 	10.971428571429
scalar Network.dyn_peer[206] 	lookupTimeSig:mean 	1.1942857142857
scalar Network.dyn_peer[207] 	lookupHopsSig:mean 	9.3333333333333
scalar Network.dyn_peer[207] 	lookupTimeSig:mean 	1.0285714285714
scalar Network.dyn_peer[208] 	lookupHopsSig:mean 	5.8571428571429
scalar Network.dyn_peer[208] 	lookupTimeSig:mean 	0.67142857142857
scalar Network.dyn_peer[209] 	lookupHopsSig:mean 	8.3333333333333
scalar Network.dyn_peer[209] 	lookupTimeSig:mean 	0.925
scalar Network.dyn_peer[210] 	lookupHopsSig:mean 	12.25
scalar Network.dyn_peer[210] 	lookupTimeSig:mean 	1.3166666666667
scalar Network.dyn_peer[211] 	lookupHopsSig:mean 	8.2857142857143
scalar Network.dyn_peer[211] 	lookupTimeSig:mean 	0.92142857142857
scalar Network.dyn_peer[212] 	lookupHopsSig:mean 	5.875
scalar Network.dyn_peer[212] 	lookupTimeSig:mean 	0.675
scalar Network.dyn_peer[213] 	lookupHopsSig:mean 	9.0526315789474
scalar Network.dyn_peer[213] 	lookupTimeSig:mean 	1
scalar Network.dyn_peer[214] 	lookupHopsSig:mean 	8.1904761904762
scalar Network.dyn_peer[214] 	lookupTimeSig:mean 	0.91428571428571
scalar Network.dyn_peer[215] 	lookupHopsSig:mean 	14.210526315789
scalar Network.dyn_peer[215] 	lookupTimeSig:mean 	1.5157894736842
scalar Network.dyn_peer[216] 	lookupHopsSig:mean 	9.3333333333333
scalar Network.dyn_peer[216] 	lookupTimeSig:mean 	1.0222222222222
scalar Network.dyn_peer[217] 	lookupHopsSig:mean 	8.3589743589744
scalar Network.dyn_peer[217] 	lookupTimeSig:mean 	0.93333333333333
scalar Network.dyn_peer[218] 	lookupHopsSig:mean 	12.130434782609
scalar Network.dyn_peer[218] 	lookupTimeSig:mean 	1.3086956521739
scalar Network.dyn_peer[219] 	lookupHopsSig:mean 	4.3333333333333
scalar Network.dyn_peer[219] 	lookupTimeSig:mean 	0.51666666666667
scalar Network.dyn_peer[220] 	lookupHopsSig:mean 	10.483870967742
scalar Network.dyn_peer[220] 	lookupTimeSig:mean 	1.1451612903226
scalar Network.dyn_peer[221] 	lookupHopsSig:mean 	11.642857142857
scalar Network.dyn_peer[221] 	lookupTimeSig:mean 	1.2571428571429
scalar Network.dyn_peer[222] 	lookupHopsSig:mean 	13
scalar Network.dyn_peer[222] 	lookupTimeSig:mean 	1.3888888888889
scalar Network.dyn_peer[223] 	lookupHopsSig:mean 	10.8
scalar Network.dyn_peer[223] 	lookupTimeSig:mean 	1.175
scalar Network.dyn_peer[224] 	lookupHopsSig:mean 	6.6666666666667
scalar Network.dyn_peer[224] 	lookupTimeSig:mean 	0.75
scalar Network.dyn_peer[225] 	lookupHopsSig:mean 	6.8
scalar Network.dyn_peer[225] 	lookupTimeSig:mean 	0.76
scalar Network.dyn_peer[226] 	lookupHopsSig:mean 	11.892857142857
scalar Network.dyn_peer[226] 	lookupTimeSig:mean 	1.2857142857143
scalar Network.dyn_peer[227] 	lookupHopsSig:mean 	5.3333333333333
scalar Network.dyn_peer[227] 	lookupTimeSig:mean 	0.625
scalar Network.dyn_peer[228] 	lookupHopsSig:mean 	12.380952380952
scalar Network.dyn_peer[228] 	lookupTimeSig:mean 	1.3333333333333
scalar Network.dyn_peer[229] 	lookupHopsSig:mean 	13.444444444444
scalar Network.dyn_peer[229] 	lookupTimeSig:mean 	1.4388888888889
scalar Network.dyn_peer[230] 	lookupHopsSig:mean 	6.7272727272727
scalar Network.dyn_peer[230] 	lookupTimeSig:mean 	0.76363636363636
scalar Network.dyn_peer[231] 	lookupHopsSig:mean 	8.9047619047619
scalar Network.dyn_peer[231] 	lookupTimeSig:mean 	0.98571428571429
scalar Network.dyn_peer[232] 	lookupHopsSig:mean 	9.5
scalar Network.dyn_peer[232] 	lookupTimeSig:mean 	1.0458333333333
scalar Network.dyn_peer[233] 	lookupHopsSig:mean 	4.875
scalar Network.dyn_peer[233] 	lookupTimeSig:mean 	0.575
scalar Network.dyn_peer[234] 	lookupHopsSig:mean 	10.421052631579
scalar Network.dyn_peer[234] 	lookupTimeSig:mean 	1.1394736842105
scalar Network.dyn_peer[235] 	lookupHopsSig:mean 	5.3333333333333
scalar Network.dyn_peer[235] 	lookupTimeSig:mean 	0.62666666666667
scalar Network.dyn_peer[236] 	lookupHopsSig:mean 	10.222222222222
scalar Network.dyn_peer[236] 	lookupTimeSig:mean 	1.1111111111111
scalar Network.dyn_peer[237] 	lookupHopsSig:mean 	7.7222222222222
scalar Network.dyn_peer[237] 	lookupTimeSig:mean 	0.86666666666667
scalar Network.dyn_peer[238] 	lookupHopsSig:mean 	7.375
scalar Network.dyn_peer[238] 	lookupTimeSig:mean 	0.825
scalar Network.dyn_peer[239] 	lookupHopsSig:mean 	6.25
scalar Network.dyn_peer[239] 	lookupTimeSig:mean 	0.7125
scalar Network.dyn_peer[240] 	lookupHopsSig:mean 	6
scalar Network.dyn_peer[240] 	lookupTimeSig:mean 	0.68571428571429
scalar Network.dyn_peer[241] 	lookupHopsSig:mean 	8.5
scalar Network.dyn_peer[241] 	lookupTimeSig:mean 	0.94444444444444
scalar Network.dyn_peer[242] 	lookupHopsSig:mean 	6.5
scalar Network.dyn_peer[242] 	lookupTimeSig:mean 	0.7375
scalar Network.dyn_peer[243] 	lookupHopsSig:mean 	9.3809523809524
scalar Network.dyn_peer[243] 	lookupTimeSig:mean 	1.0333333333333
scalar Network.dyn_peer[244] 	lookupHopsSig:mean 	9.8125
scalar Network.dyn_peer[244] 	lookupTimeSig:mean 	1.075
scalar Network.dyn_peer[245] 	lookupHopsSig:mean 	7.4444444444444
scalar Network.dyn_peer[245] 	lookupTimeSig:mean 	0.83333333333333
scalar Network.dyn_peer[246] 	lookupHopsSig:mean 	8.375
scalar Network.dyn_peer[246] 	lookupTimeSig:mean 	0.93125
scalar Network.dyn_peer[247] 	lookupHopsSig:mean 	10.666666666667
scalar Network.dyn_peer[247] 	lookupTimeSig:mean 	1.1619047619048
scalar Network.dyn_peer[248] 	lookupHopsSig:mean 	9.8846153846154
scalar Network.dyn_peer[248] 	lookupTimeSig:mean 	1.0846153846154
scalar Network.dyn_peer[249] 	lookupHopsSig:mean 	7
scalar Network.dyn_peer[249] 	lookupTimeSig:mean 	0.79
scalar Network.dyn_peer[250] 	lookupHopsSig:mean 	16
scalar Network.dyn_peer[250] 	lookupTimeSig:mean 	1.6928571428571
scalar Network.dyn_peer[251] 	lookupHopsSig:mean 	13.166666666667
scalar Network.dyn_peer[251] 	lookupTimeSig:mean 	1.4125
scalar Network.dyn_peer[252] 	lookupHopsSig:mean 	10.363636363636
scalar Network.dyn_peer[252] 	lookupTimeSig:mean 	1.1272727272727
scalar Network.dyn_peer[253] 	lookupHopsSig:mean 	6.2857142857143
scalar Network.dyn_peer[253] 	lookupTimeSig:mean 	0.71428571428571
scalar Network.dyn_peer[254] 	lookupHopsSig:mean 	9.45
scalar Network.dyn_peer[254] 	lookupTimeSig:mean 	1.04
scalar Network.dyn_peer[255] 	lookupHopsSig:mean 	9.6923076923077
scalar Network.dyn_peer[255] 	lookupTimeSig:mean 	1.0615384615385
scalar Network.dyn_peer[256] 	lookupHopsSig:mean 	7.125
scalar Network.dyn_peer[256] 	lookupTimeSig:mean 	0.8
scalar Network.dyn_peer[257] 	lookupHopsSig:mean 	8.75
scalar Network.dyn_peer[257] 	lookupTimeSig:mean 	0.95
scalar Network.dyn_peer[258] 	lookupHopsSig:mean 	8.1176470588235
scalar Network.dyn_peer[258] 	lookupTimeSig:mean 	0.90588235294118
scalar Network.dyn_peer[259] 	lookupHopsSig:mean 	7.6
scalar Network.dyn_peer[259] 	lookupTimeSig:mean 	0.84
scalar Network.dyn_peer[260] 	lookupHopsSig:mean 	8.1333333333333
scalar Network.dyn_peer[260] 	lookupTimeSig:mean 	0.90666666666667
scalar Network.dyn_peer[261] 	lookupHopsSig:mean 	9
scalar Network.dyn_peer[261] 	lookupTimeSig:mean 	0.98333333333333
scalar Network.dyn_peer[262] 	lookupHopsSig:mean 	9.6153846153846
scalar Network.dyn_peer[262] 	lookupTimeSig:mean 	1.0538461538462
scalar Network.dyn_peer[263] 	lookupHopsSig:mean 	7.3333333333333
scalar Network.dyn_peer[263] 	lookupTimeSig:mean 	0.81666666666667
scalar Network.dyn_peer[264] 	lookupHopsSig:mean 	4.75
scalar Network.dyn_peer[264] 	lookupTimeSig:mean 	0.55
scalar Network.dyn_peer[265] 	lookupHopsSig:mean 	8.6875
scalar Network.dyn_peer[265] 	lookupTimeSig:mean 	0.9625
scalar Network.dyn_peer[266] 	lookupHopsSig:mean 	10.47619047619
scalar Network.dyn_peer[266] 	lookupTimeSig:mean 	1.1428571428571
scalar Network.dyn_peer[267] 	lookupHopsSig:mean 	5.6666666666667
scalar Network.dyn_peer[267] 	lookupTimeSig:mean 	0.65555555555556
scalar Network.dyn_peer[268] 	lookupHopsSig:mean 	13
scalar Network.dyn_peer[268] 	lookupTimeSig:mean 	1.3958333333333
scalar Network.dyn_peer[269] 	lookupHopsSig:mean 	8.5555555555556
scalar Network.dyn_peer[269] 	lookupTimeSig:mean 	0.94444444444444
scalar Network.dyn_peer[270] 	lookupHopsSig:mean 	8.6666666666667
scalar Network.dyn_peer[270] 	lookupTimeSig:mean 	0.95833333333333
scalar Network.dyn_peer[271] 	lookupHopsSig:mean 	8.9333333333333
scalar Network.dyn_peer[271] 	lookupTimeSig:mean 	0.98666666666667
scalar Network.dyn_peer[272] 	lookupHopsSig:mean 	9
scalar Network.dyn_peer[272] 	lookupTimeSig:mean 	0.975
scalar Network.dyn_peer[273] 	lookupHopsSig:mean 	9.7619047619048
scalar Network.dyn_peer[273] 	lookupTimeSig:mean 	1.0714285714286
scalar Network.dyn_peer[274] 	lookupHopsSig:mean 	11.636363636364
scalar Network.dyn_peer[274] 	lookupTimeSig:mean 	1.2590909090909
scalar Network.dyn_peer[275] 	lookupHopsSig:mean 	6.2857142857143
scalar Network.dyn_peer[275] 	lookupTimeSig:mean 	0.71428571428571
scalar Network.dyn_peer[276] 	lookupHopsSig:mean 	8.5714285714286
scalar Network.dyn_peer[276] 	lookupTimeSig:mean 	0.94285714285714
scalar Network.dyn_peer[277] 	lookupHopsSig:mean 	9.5384615384615
scalar Network.dyn_peer[277] 	lookupTimeSig:mean 	1.0461538461538
scalar Network.dyn_peer[278] 	lookupHopsSig:mean 	8
scalar Network.dyn_peer[278] 	lookupTimeSig:mean 	0.88571428571429
scalar Network.dyn_peer[279] 	lookupHopsSig:mean 	13.130434782609
scalar Network.dyn_peer[279] 	lookupTimeSig:mean 	1.4086956521739
scalar Network.dyn_peer[280] 	lookupHopsSig:mean 	9.2413793103448
scalar Network.dyn_peer[280] 	lookupTimeSig:mean 	1.0206896551724
scalar Network.dyn_peer[281] 	lookupHopsSig:mean 	10.058823529412
scalar Network.dyn_peer[281] 	lookupTimeSig:mean 	1.1
scalar Network.dyn_peer[282] 	lookupHopsSig:mean 	7.9130434782609
scalar Network.dyn_peer[282] 	lookupTimeSig:mean 	0.88695652173913
scalar Network.dyn_peer[283] 	lookupHopsSig:mean 	8
scalar Network.dyn_peer[283] 	lookupTimeSig:mean 	0.88
scalar Network.dyn_peer[284] 	lookupHopsSig:mean 	7.1333333333333
scalar Network.dyn_peer[284] 	lookupTimeSig:mean 	0.80666666666667
scalar Network.dyn_peer[285] 	lookupHopsSig:mean 	9.4444444444444
scalar Network.dyn_peer[285] 	lookupTimeSig:mean 	1.0407407407407
scalar Network.dyn_peer[286] 	lookupHopsSig:mean 	10.285714285714
scalar Network.dyn_peer[286] 	lookupTimeSig:mean 	1.1238095238095
scalar Network.dyn_peer[287] 	lookupHopsSig:mean 	8.7142857142857
scalar Network.dyn_peer[287] 	lookupTimeSig:mean 	0.96666666666667
scalar Network.dyn_peer[288] 	lookupHopsSig:mean 	6.875
scalar Network.dyn_peer[288] 	lookupTimeSig:mean 	0.775
scalar Network.dyn_peer[289] 	lookupHopsSig:mean 	6.1428571428571
scalar Network.dyn_peer[289] 	lookupTimeSig:mean 	0.7
scalar Network.dyn_peer[290] 	lookupHopsSig:mean 	9.5416666666667
scalar Network.dyn_peer[290] 	lookupTimeSig:mean 	1.05
scalar Network.dyn_peer[291] 	lookupHopsSig:mean 	9.4615384615385
scalar Network.dyn_peer[291] 	lookupTimeSig:mean 	1.0384615384615
scalar Network.dyn_peer[292] 	lookupHopsSig:mean 	5.8571428571429
scalar Network.dyn_peer[292] 	lookupTimeSig:mean 	0.67142857142857
scalar Network.dyn_peer[293] 	lookupHopsSig:mean 	10.78125
scalar Network.dyn_peer[293] 	lookupTimeSig:mean 	1.175
scalar Network.dyn_peer[294] 	lookupHopsSig:mean 	6.8888888888889
scalar Network.dyn_peer[294] 	lookupTimeSig:mean 	0.78333333333333
scalar Network.dyn_peer[295] 	lookupHopsSig:mean 	9.0625
scalar Network.dyn_peer[295] 	lookupTimeSig:mean 	1
scalar Network.dyn_peer[296] 	lookupHopsSig:mean 	10.4
scalar Network.dyn_peer[296] 	lookupTimeSig:mean 	1.12
scalar Network.dyn_peer[297] 	lookupHopsSig:mean 	10.157894736842
scalar Network.dyn_peer[297] 	lookupTimeSig:mean 	1.1105263157895
scalar Network.dyn_peer[298] 	lookupHopsSig:mean 	7.4285714285714
scalar Network.dyn_peer[298] 	lookupTimeSig:mean 	0.82857142857143
scalar Network.dyn_peer[299] 	lookupHopsSig:mean 	8.6842105263158
scalar Network.dyn_peer[299] 	lookupTimeSig:mean 	0.96315789473684
scalar Network.dyn_peer[300] 	lookupHopsSig:mean 	7.8571428571429
scalar Network.dyn_peer[300] 	lookupTimeSig:mean 	0.87857142857143
scalar Network.dyn_peer[301] 	lookupHopsSig:mean 	10.36
scalar Network.dyn_peer[301] 	lookupTimeSig:mean 	1.132
scalar Network.dyn_peer[302] 	lookupHopsSig:mean 	9.3
scalar Network.dyn_peer[302] 	lookupTimeSig:mean 	1.02
scalar Network.dyn_peer[303] 	lookupHopsSig:mean 	10.76
scalar Network.dyn_peer[303] 	lookupTimeSig:mean 	1.172
scalar Network.dyn_peer[304] 	lookupHopsSig:mean 	8.9444444444444
scalar Network.dyn_peer[304] 	lookupTimeSig:mean 	0.98888888888889
scalar Network.dyn_peer[305] 	lookupHopsSig:mean 	9
scalar Network.dyn_peer[305] 	lookupTimeSig:mean 	0.99
scalar Network.dyn_peer[306] 	lookupHopsSig:mean 	9.1666666666667
scalar Network.dyn_peer[306] 	lookupTimeSig:mean 	1.0083333333333
scalar Network.dyn_peer[307] 	lookupHopsSig:mean 	11.166666666667
scalar Network.dyn_peer[307] 	lookupTimeSig:mean 	1.2111111111111
scalar Network.dyn_peer[308] 	lookupHopsSig:mean 	11.516129032258
scalar Network.dyn_peer[308] 	lookupTimeSig:mean 	1.2483870967742
scalar Network.dyn_peer[309] 	lookupHopsSig:mean 	7.5
scalar Network.dyn_peer[309] 	lookupTimeSig:mean 	0.84444444444444
scalar Network.dyn_peer[310] 	lookupHopsSig:mean 	8.8571428571429
scalar Network.dyn_peer[310] 	lookupTimeSig:mean 	0.97142857142857
scalar Network.dyn_peer[311] 	lookupHopsSig:mean 	8.9166666666667
scalar Network.dyn_peer[311] 	lookupTimeSig:mean 	0.98333333333333
scalar Network.dyn_peer[312] 	lookupHopsSig:mean 	13.5
scalar Network.dyn_peer[312] 	lookupTimeSig:mean 	1.4333333333333
scalar Network.dyn_peer[313] 	lookupHopsSig:mean 	11.5
scalar Network.dyn_peer[313] 	lookupTimeSig:mean 	1.245
scalar Network.dyn_peer[314] 	lookupHopsSig:mean 	7
scalar Network.dyn_peer[314] 	lookupTimeSig:mean 	0.79166666666667
scalar Network.dyn_peer[315] 	lookupHopsSig:mean 	6.8
scalar Network.dyn_peer[315] 	lookupTimeSig:mean 	0.76
scalar Network.dyn_peer[316] 	lookupHopsSig:mean 	9.8181818181818
scalar Network.dyn_peer[316] 	lookupTimeSig:mean 	1.0727272727273
scalar Network.dyn_peer[317] 	lookupHopsSig:mean 	11.857142857143
scalar Network.dyn_peer[317] 	lookupTimeSig:mean 	1.2714285714286
scalar Network.dyn_peer[318] 	lookupHopsSig:mean 	12.272727272727
scalar Network.dyn_peer[318] 	lookupTimeSig:mean 	1.3227272727273
scalar Network.dyn_peer[319] 	lookupHopsSig:mean 	7.2
scalar Network.dyn_peer[319] 	lookupTimeSig:mean 	0.8
scalar Network.dyn_peer[320] 	lookupHopsSig:mean 	7
scalar Network.dyn_peer[320] 	lookupTimeSig:mean 	0.775
scalar Network.dyn_peer[321] 	lookupHopsSig:mean 	8.4
scalar Network.dyn_peer[321] 	lookupTimeSig:mean 	0.92
scalar Network.dyn_peer[322] 	lookupHopsSig:mean 	7.5
scalar Network.dyn_peer[322] 	lookupTimeSig:mean 	0.8375
scalar Network.dyn_peer[323] 	lookupHopsSig:mean 	11.95
scalar Network.dyn_peer[323] 	lookupTimeSig:mean 	1.29
scalar Network.dyn_peer[324] 	lookupHopsSig:mean 	7.8333333333333
scalar Network.dyn_peer[324] 	lookupTimeSig:mean 	0.86666666666667
scalar Network.dyn_peer[325] 	lookupHopsSig:mean 	8.2857142857143
scalar Network.dyn_peer[325] 	lookupTimeSig:mean 	0.91428571428571
scalar Network.dyn_peer[326] 	lookupHopsSig:mean 	6.2857142857143
scalar Network.dyn_peer[326] 	lookupTimeSig:mean 	0.71428571428571
scalar Network.dyn_peer[327] 	lookupHopsSig:mean 	10.294117647059
scalar Network.dyn_peer[327] 	lookupTimeSig:mean 	1.1235294117647
scalar Network.dyn_peer[328] 	lookupHopsSig:mean 	9.9375
scalar Network.dyn_peer[328] 	lookupTimeSig:mean 	1.0875
scalar Network.dyn_peer[329] 	lookupHopsSig:mean 	7.4166666666667
scalar Network.dyn_peer[329] 	lookupTimeSig:mean 	0.83333333333333
scalar Network.dyn_peer[330] 	lookupHopsSig:mean 	10
scalar Network.dyn_peer[330] 	lookupTimeSig:mean 	1.0962962962963
scalar Network.dyn_peer[331] 	lookupHopsSig:mean 	6.2
scalar Network.dyn_peer[331] 	lookupTimeSig:mean 	0.7
scalar Network.dyn_peer[332] 	lookupHopsSig:mean 	9.4285714285714
scalar Network.dyn_peer[332] 	lookupTimeSig:mean 	1.0285714285714
scalar Network.dyn_peer[333] 	lookupHopsSig:mean 	12.0625
scalar Network.dyn_peer[333] 	lookupTimeSig:mean 	1.303125
scalar Network.dyn_peer[334] 	lookupHopsSig:mean 	8.6153846153846
scalar Network.dyn_peer[334] 	lookupTimeSig:mean 	0.95384615384615
scalar Network.dyn_peer[335] 	lookupHopsSig:mean 	9.2352941176471
scalar Network.dyn_peer[335] 	lookupTimeSig:mean 	1.0176470588235
scalar Network.dyn_peer[336] 	lookupHopsSig:mean 	12
scalar Network.dyn_peer[336] 	lookupTimeSig:mean 	1.2909090909091
scalar Network.dyn_peer[337] 	lookupHopsSig:mean 	11.2
scalar Network.dyn_peer[337] 	lookupTimeSig:mean 	1.2
scalar Network.dyn_peer[338] 	lookupHopsSig:mean 	11.9375
scalar Network.dyn_peer[338] 	lookupTimeSig:mean 	1.2875
scalar Network.dyn_peer[339] 	lookupHopsSig:mean 	8
scalar Network.dyn_peer[339] 	lookupTimeSig:mean 	0.89230769230769
scalar Network.dyn_peer[340] 	lookupHopsSig:mean 	8.8
scalar Network.dyn_peer[340] 	lookupTimeSig:mean 	0.96
scalar Network.dyn_peer[341] 	lookupHopsSig:mean 	7.6666666666667
scalar Network.dyn_peer[341] 	lookupTimeSig:mean 	0.85
scalar Network.dyn_peer[342] 	lookupHopsSig:mean 	7.3333333333333
scalar Network.dyn_peer[342] 	lookupTimeSig:mean 	0.825
scalar Network.dyn_peer[343] 	lookupHopsSig:mean 	7.2857142857143
scalar Network.dyn_peer[343] 	lookupTimeSig:mean 	0.81428571428571
scalar Network.dyn_peer[344] 	lookupHopsSig:mean 	9.8260869565217
scalar Network.dyn_peer[344] 	lookupTimeSig:mean 	1.0782608695652
scalar Network.dyn_peer[345] 	lookupHopsSig:mean 	8.7142857142857
scalar Network.dyn_peer[345] 	lookupTimeSig:mean 	0.95714285714286
scalar Network.dyn_peer[346] 	lookupHopsSig:mean 	10.222222222222
scalar Network.dyn_peer[346] 	lookupTimeSig:mean 	1.1111111111111
scalar Network.dyn_peer[347] 	lookupHopsSig:mean 	12.375
scalar Network.dyn_peer[347] 	lookupTimeSig:mean 	1.325
scalar Network.dyn_peer[348] 	lookupHopsSig:mean 	8.7
scalar Network.dyn_peer[348] 	lookupTimeSig:mean 	0.96666666666667
scalar Network.dyn_peer[349] 	lookupHopsSig:mean 	9.5454545454545
scalar Network.dyn_peer[349] 	lookupTimeSig:mean 	1.0454545454545
scalar Network.dyn_peer[350] 	lookupHopsSig:mean 	7.7692307692308
scalar Network.dyn_peer[350] 	lookupTimeSig:mean 	0.86923076923077
scalar Network.dyn_peer[351] 	lookupHopsSig:mean 	4.4285714285714
scalar Network.dyn_peer[351] 	lookupTimeSig:mean 	0.52857142857143
scalar Network.dyn_peer[352] 	lookupHopsSig:mean 	8.1818181818182
scalar Network.dyn_peer[352] 	lookupTimeSig:mean 	0.90909090909091
scalar Network.dyn_peer[353] 	lookupHopsSig:mean 	11
scalar Network.dyn_peer[353] 	lookupTimeSig:mean 	1.1857142857143
scalar Network.dyn_peer[354] 	lookupHopsSig:mean 	6.2857142857143
scalar Network.dyn_peer[354] 	lookupTimeSig:mean 	0.71428571428571
scalar Network.dyn_peer[355] 	lookupHopsSig:mean 	5.7142857142857
scalar Network.dyn_peer[355] 	lookupTimeSig:mean 	0.65714285714286
scalar Network.dyn_peer[356] 	lookupHopsSig:mean 	12.114285714286
scalar Network.dyn_peer[356] 	lookupTimeSig:mean 	1.3085714285714
scalar Network.dyn_peer[357] 	lookupHopsSig:mean 	11.071428571429
scalar Network.dyn_peer[357] 	lookupTimeSig:mean 	1.2
scalar Network.dyn_peer[358] 	lookupHopsSig:mean 	13.411764705882
scalar Network.dyn_peer[358] 	lookupTimeSig:mean 	1.4352941176471
scalar Network.dyn_peer[359] 	lookupHopsSig:mean 	8
scalar Network.dyn_peer[359] 	lookupTimeSig:mean 	0.88888888888889
scalar Network.dyn_peer[360] 	lookupHopsSig:mean 	9
scalar Network.dyn_peer[360] 	lookupTimeSig:mean 	0.99285714285714
scalar Network.dyn_peer[361] 	lookupHopsSig:mean 	10.875
scalar Network.dyn_peer[361] 	lookupTimeSig:mean 	1.184375
scalar Network.dyn_peer[362] 	lookupHopsSig:mean 	9.3
scalar Network.dyn_peer[362] 	lookupTimeSig:mean 	1.02
scalar Network.dyn_peer[363] 	lookupHopsSig:mean 	8.5714285714286
scalar Network.dyn_peer[363] 	lookupTimeSig:mean 	0.95
scalar Network.dyn_peer[364] 	lookupHopsSig:mean 	7.5
scalar Network.dyn_peer[364] 	lookupTimeSig:mean 	0.84285714285714
scalar Network.dyn_peer[365] 	lookupHopsSig:mean 	10.416666666667
scalar Network.dyn_peer[365] 	lookupTimeSig:mean 	1.1333333333333
scalar Network.dyn_peer[366] 	lookupHopsSig:mean 	10.25
scalar Network.dyn_peer[366] 	lookupTimeSig:mean 	1.1125
scalar Network.dyn_peer[367] 	lookupHopsSig:mean 	9
scalar Network.dyn_peer[367] 	lookupTimeSig:mean 	0.99090909090909
scalar Network.dyn_peer[368] 	lookupHopsSig:mean 	8.75
scalar Network.dyn_peer[368] 	lookupTimeSig:mean 	0.9625
scalar Network.dyn_peer[369] 	lookupHopsSig:mean 	7
scalar Network.dyn_peer[369] 	lookupTimeSig:mean 	0.78571428571429
scalar Network.dyn_peer[370] 	lookupHopsSig:mean 	4.8571428571429
scalar Network.dyn_peer[370] 	lookupTimeSig:mean 	0.57142857142857
scalar Network.dyn_peer[371] 	lookupHopsSig:mean 	11
scalar Network.dyn_peer[371] 	lookupTimeSig:mean 	1.19
scalar Network.dyn_peer[372] 	lookupHopsSig:mean 	6.75
scalar Network.dyn_peer[372] 	lookupTimeSig:mean 	0.76666666666667
scalar Network.dyn_peer[373] 	lookupHopsSig:mean 	7.75
scalar Network.dyn_peer[373] 	lookupTimeSig:mean 	0.8625
scalar Network.dyn_peer[374] 	lookupHopsSig:mean 	6.9166666666667
scalar Network.dyn_peer[374] 	lookupTimeSig:mean 	0.78333333333333
scalar Network.dyn_peer[375] 	lookupHopsSig:mean 	13.5
scalar Network.dyn_peer[375] 	lookupTimeSig:mean 	1.445
scalar Network.dyn_peer[376] 	lookupHopsSig:mean 	13
scalar Network.dyn_peer[376] 	lookupTimeSig:mean 	1.3947368421053
scalar Network.dyn_peer[377] 	lookupHopsSig:mean 	7.4285714285714
scalar Network.dyn_peer[377] 	lookupTimeSig:mean 	0.82857142857143
scalar Network.dyn_peer[378] 	lookupHopsSig:mean 	9
scalar Network.dyn_peer[378] 	lookupTimeSig:mean 	0.9875
scalar Network.dyn_peer[379] 	lookupHopsSig:mean 	12.333333333333
scalar Network.dyn_peer[379] 	lookupTimeSig:mean 	1.325
scalar Network.dyn_peer[380] 	lookupHopsSig:mean 	13
scalar Network.dyn_peer[380] 	lookupTimeSig:mean 	1.3916666666667
scalar Network.dyn_peer[381] 	lookupHopsSig:mean 	7.875
scalar Network.dyn_peer[381] 	lookupTimeSig:mean 	0.875
scalar Network.dyn_peer[382] 	lookupHopsSig:mean 	8.5
scalar Network.dyn_peer[382] 	lookupTimeSig:mean 	0.9375
scalar Network.dyn_peer[383] 	lookupHopsSig:mean 	11.866666666667
scalar Network.dyn_peer[383] 	lookupTimeSig:mean 	1.28
scalar Network.dyn_peer[384] 	lookupHopsSig:mean 	9.4285714285714
scalar Network.dyn_peer[384] 	lookupTimeSig:mean 	1.0285714285714
scalar Network.dyn_peer[385] 	lookupHopsSig:mean 	3
scalar Network.dyn_peer[385] 	lookupTimeSig:mean 	0.38333333333333
scalar Network.dyn_peer[386] 	lookupHopsSig:mean 	10.8
scalar Network.dyn_peer[386] 	lookupTimeSig:mean 	1.16
scalar Network.dyn_peer[387] 	lookupHopsSig:mean 	8.1875
scalar Network.dyn_peer[387] 	lookupTimeSig:mean 	0.9125
scalar Network.dyn_peer[388] 	lookupHopsSig:mean 	8.8
scalar Network.dyn_peer[388] 	lookupTimeSig:mean 	0.96
scalar Network.dyn_peer[389] 	lookupHopsSig:mean 	10.2
scalar Network.dyn_peer[389] 	lookupTimeSig:mean 	1.11
scalar Network.dyn_peer[390] 	lookupHopsSig:mean 	6.75
scalar Network.dyn_peer[390] 	lookupTimeSig:mean 	0.7625
scalar Network.dyn_peer[391] 	lookupHopsSig:mean 	10
scalar Network.dyn_peer[391] 	lookupTimeSig:mean 	1.0928571428571
scalar Network.dyn_peer[392] 	lookupHopsSig:mean 	11.75
scalar Network.dyn_peer[392] 	lookupTimeSig:mean 	1.2625
scalar Network.dyn_peer[393] 	lookupHopsSig:mean 	7.304347826087
scalar Network.dyn_peer[393] 	lookupTimeSig:mean 	0.82608695652174
scalar Network.dyn_peer[394] 	lookupHopsSig:mean 	6.8235294117647
scalar Network.dyn_peer[394] 	lookupTimeSig:mean 	0.77647058823529
scalar Network.dyn_peer[395] 	lookupHopsSig:mean 	11.666666666667
scalar Network.dyn_peer[395] 	lookupTimeSig:mean 	1.25
scalar Network.dyn_peer[396] 	lookupHopsSig:mean 	11.166666666667
scalar Network.dyn_peer[396] 	lookupTimeSig:mean 	1.2133333333333
scalar Network.dyn_peer[397] 	lookupHopsSig:mean 	6.4
scalar Network.dyn_peer[397] 	lookupTimeSig:mean 	0.72
scalar Network.dyn_peer[398] 	lookupHopsSig:mean 	11.941176470588
scalar Network.dyn_peer[398] 	lookupTimeSig:mean 	1.2882352941176
scalar Network.dyn_peer[399] 	lookupHopsSig:mean 	10.888888888889
scalar Network.dyn_peer[399] 	lookupTimeSig:mean 	1.1777777777778
scalar Network.dyn_peer[400] 	lookupHopsSig:mean 	10.375
scalar Network.dyn_peer[400] 	lookupTimeSig:mean 	1.125
scalar Network.dyn_peer[401] 	lookupHopsSig:mean 	7.75
scalar Network.dyn_peer[401] 	lookupTimeSig:mean 	0.86666666666667
scalar Network.dyn_peer[402] 	lookupHopsSig:mean 	6.375
scalar Network.dyn_peer[402] 	lookupTimeSig:mean 	0.725
scalar Network.dyn_peer[403] 	lookupHopsSig:mean 	6.9090909090909
scalar Network.dyn_peer[403] 	lookupTimeSig:mean 	0.78181818181818
scalar Network.dyn_peer[404] 	lookupHopsSig:mean 	12.923076923077
scalar Network.dyn_peer[404] 	lookupTimeSig:mean 	1.3846153846154
scalar Network.dyn_peer[405] 	lookupHopsSig:mean 	10.0625
scalar Network.dyn_peer[405] 	lookupTimeSig:mean 	1.1
scalar Network.dyn_peer[406] 	lookupHopsSig:mean 	10.222222222222
scalar Network.dyn_peer[406] 	lookupTimeSig:mean 	1.1111111111111
scalar Network.dyn_peer[407] 	lookupHopsSig:mean 	9
scalar Network.dyn_peer[407] 	lookupTimeSig:mean 	0.99090909090909
scalar Network.dyn_peer[408] 	lookupHopsSig:mean 	10.857142857143
scalar Network.dyn_peer[408] 	lookupTimeSig:mean 	1.1714285714286
scalar Network.dyn_peer[409] 	lookupHopsSig:mean 	13.866666666667
scalar Network.dyn_peer[409] 	lookupTimeSig:mean 	1.48
scalar Network.dyn_peer[410] 	lookupHopsSig:mean 	12.25
scalar Network.dyn_peer[410] 	lookupTimeSig:mean 	1.3125
scalar Network.dyn_peer[411] 	lookupHopsSig:mean 	14.857142857143
scalar Network.dyn_peer[411] 	lookupTimeSig:mean 	1.5809523809524
scalar Network.dyn_peer[412] 	lookupHopsSig:mean 	9.0769230769231
scalar Network.dyn_peer[412] 	lookupTimeSig:mean 	1
scalar Network.dyn_peer[413] 	lookupHopsSig:mean 	11.714285714286
scalar Network.dyn_peer[413] 	lookupTimeSig:mean 	1.2666666666667
scalar Network.dyn_peer[414] 	lookupHopsSig:mean 	5.5714285714286
scalar Network.dyn_peer[414] 	lookupTimeSig:mean 	0.64285714285714
scalar Network.dyn_peer[415] 	lookupHopsSig:mean 	10.25
scalar Network.dyn_peer[415] 	lookupTimeSig:mean 	1.1166666666667
scalar Network.dyn_peer[416] 	lookupHopsSig:mean 	13
scalar Network.dyn_peer[416] 	lookupTimeSig:mean 	1.3916666666667
scalar Network.dyn_peer[417] 	lookupHopsSig:mean 	15.642857142857
scalar Network.dyn_peer[417] 	lookupTimeSig:mean 	1.6571428571429
scalar Network.dyn_peer[418] 	lookupHopsSig:mean 	10.666666666667
scalar Network.dyn_peer[418] 	lookupTimeSig:mean 	1.1333333333333
scalar Network.dyn_peer[419] 	lookupHopsSig:mean 	11.25
scalar Network.dyn_peer[419] 	lookupTimeSig:mean 	1.2125
scalar Network.dyn_peer[420] 	lookupHopsSig:mean 	8.6
scalar Network.dyn_peer[420] 	lookupTimeSig:mean 	0.95
scalar Network.dyn_peer[421] 	lookupHopsSig:mean 	5.3333333333333
scalar Network.dyn_peer[421] 	lookupTimeSig:mean 	0.62222222222222
scalar Network.dyn_peer[422] 	lookupHopsSig:mean 	9.8181818181818
scalar Network.dyn_peer[422] 	lookupTimeSig:mean 	1.0727272727273
scalar Network.dyn_peer[423] 	lookupHopsSig:mean 	10.307692307692
scalar Network.dyn_peer[423] 	lookupTimeSig:mean 	1.1230769230769
scalar Network.dyn_peer[424] 	lookupHopsSig:mean 	17.25
scalar Network.dyn_peer[424] 	lookupTimeSig:mean 	1.8125
scalar Network.dyn_peer[425] 	lookupHopsSig:mean 	14.117647058824
scalar Network.dyn_peer[425] 	lookupTimeSig:mean 	1.5058823529412
scalar Network.dyn_peer[426] 	lookupHopsSig:mean 	9.3333333333333
scalar Network.dyn_peer[426] 	lookupTimeSig:mean 	1.0222222222222
scalar Network.dyn_peer[427] 	lookupHopsSig:mean 	10.857142857143
scalar Network.dyn_peer[427] 	lookupTimeSig:mean 	1.1714285714286
scalar Network.dyn_peer[428] 	lookupHopsSig:mean 	12.857142857143
scalar Network.dyn_peer[428] 	lookupTimeSig:mean 	1.3714285714286
scalar Network.dyn_peer[429] 	lookupHopsSig:mean 	10.428571428571
scalar Network.dyn_peer[429] 	lookupTimeSig:mean 	1.1285714285714
scalar Network.dyn_peer[430] 	lookupHopsSig:mean 	8.8571428571429
scalar Network.dyn_peer[430] 	lookupTimeSig:mean 	0.97857142857143
scalar Network.dyn_peer[431] 	lookupHopsSig:mean 	9
scalar Network.dyn_peer[431] 	lookupTimeSig:mean 	0.98
scalar Network.dyn_peer[432] 	lookupHopsSig:mean 	11.571428571429
scalar Network.dyn_peer[432] 	lookupTimeSig:mean 	1.25
scalar Network.dyn_peer[433] 	lookupHopsSig:mean 	16.25
scalar Network.dyn_peer[433] 	lookupTimeSig:mean 	1.7
scalar Network.dyn_peer[434] 	lookupHopsSig:mean 	12.181818181818
scalar Network.dyn_peer[434] 	lookupTimeSig:mean 	1.3090909090909
scalar Network.dyn_peer[435] 	lookupHopsSig:mean 	9
scalar Network.dyn_peer[435] 	lookupTimeSig:mean 	0.98571428571429
scalar Network.dyn_peer[436] 	lookupHopsSig:mean 	12.75
scalar Network.dyn_peer[436] 	lookupTimeSig:mean 	1.36875
scalar Network.dyn_peer[437] 	lookupHopsSig:mean 	8.5625
scalar Network.dyn_peer[437] 	lookupTimeSig:mean 	0.95
scalar Network.dyn_peer[438] 	lookupHopsSig:mean 	10
scalar Network.dyn_peer[438] 	lookupTimeSig:mean 	1.08
scalar Network.dyn_peer[439] 	lookupHopsSig:mean 	10.444444444444
scalar Network.dyn_peer[439] 	lookupTimeSig:mean 	1.1333333333333
scalar Network.dyn_peer[440] 	lookupHopsSig:mean 	6.8
scalar Network.dyn_peer[440] 	lookupTimeSig:mean 	0.77
scalar Network.dyn_peer[441] 	lookupHopsSig:mean 	5.7777777777778
scalar Network.dyn_peer[441] 	lookupTimeSig:mean 	0.66666666666667
scalar Network.dyn_peer[442] 	lookupHopsSig:mean 	5.5714285714286
scalar Network.dyn_peer[442] 	lookupTimeSig:mean 	0.64285714285714
scalar Network.dyn_peer[443] 	lookupHopsSig:mean 	10.111111111111
scalar Network.dyn_peer[443] 	lookupTimeSig:mean 	1.1055555555556
scalar Network.dyn_peer[444] 	lookupHopsSig:mean 	8.5263157894737
scalar Network.dyn_peer[444] 	lookupTimeSig:mean 	0.94736842105263
scalar Network.dyn_peer[445] 	lookupHopsSig:mean 	9.4285714285714
scalar Network.dyn_peer[445] 	lookupTimeSig:mean 	1.0285714285714
scalar Network.dyn_peer[446] 	lookupHopsSig:mean 	10.444444444444
scalar Network.dyn_peer[446] 	lookupTimeSig:mean 	1.1388888888889
scalar Network.dyn_peer[447] 	lookupHopsSig:mean 	10.818181818182
scalar Network.dyn_peer[447] 	lookupTimeSig:mean 	1.1727272727273
scalar Network.dyn_peer[448] 	lookupHopsSig:mean 	10.944444444444
scalar Network.dyn_peer[448] 	lookupTimeSig:mean 	1.1888888888889
scalar Network.dyn_peer[449] 	lookupHopsSig:mean 	8.1428571428571
scalar Network.dyn_peer[449] 	lookupTimeSig:mean 	0.9
scalar Network.dyn_peer[450] 	lookupHopsSig:mean 	8
scalar Network.dyn_peer[450] 	lookupTimeSig:mean 	0.88
scalar Network.dyn_peer[451] 	lookupHopsSig:mean 	7.6923076923077
scalar Network.dyn_peer[451] 	lookupTimeSig:mean 	0.86153846153846
scalar Network.dyn_peer[452] 	lookupHopsSig:mean 	10.428571428571
scalar Network.dyn_peer[452] 	lookupTimeSig:mean 	1.1285714285714
scalar Network.dyn_peer[453] 	lookupHopsSig:mean 	12.375
scalar Network.dyn_peer[453] 	lookupTimeSig:mean 	1.33125
scalar Network.dyn_peer[454] 	lookupHopsSig:mean 	9.875
scalar Network.dyn_peer[454] 	lookupTimeSig:mean 	1.075
scalar Network.dyn_peer[455] 	lookupHopsSig:mean 	10.166666666667
scalar Network.dyn_peer[455] 	lookupTimeSig:mean 	1.1
scalar Network.dyn_peer[456] 	lookupHopsSig:mean 	11.857142857143
scalar Network.dyn_peer[456] 	lookupTimeSig:mean 	1.2714285714286
scalar Network.dyn_peer[457] 	lookupHopsSig:mean 	11.6
scalar Network.dyn_peer[457] 	lookupTimeSig:mean 	1.24
scalar Network.dyn_peer[458] 	lookupHopsSig:mean 	10.090909090909
scalar Network.dyn_peer[458] 	lookupTimeSig:mean 	1.1
scalar Network.dyn_peer[459] 	lookupHopsSig:mean 	9.7692307692308
scalar Network.dyn_peer[459] 	lookupTimeSig:mean 	1.0692307692308
scalar Network.dyn_peer[460] 	lookupHopsSig:mean 	10.428571428571
scalar Network.dyn_peer[460] 	lookupTimeSig:mean 	1.1285714285714
scalar Network.dyn_peer[461] 	lookupHopsSig:mean 	6.7692307692308
scalar Network.dyn_peer[461] 	lookupTimeSig:mean 	0.76923076923077
scalar Network.dyn_peer[462] 	lookupHopsSig:mean 	5.5555555555556
scalar Network.dyn_peer[462] 	lookupTimeSig:mean 	0.64444444444444
scalar Network.dyn_peer[463] 	lookupHopsSig:mean 	9.5625
scalar Network.dyn_peer[463] 	lookupTimeSig:mean 	1.05
scalar Network.dyn_peer[464] 	lookupHopsSig:mean 	8.75
scalar Network.dyn_peer[464] 	lookupTimeSig:mean 	0.9625
scalar Network.dyn_peer[465] 	lookupHopsSig:mean 	9.4666666666667
scalar Network.dyn_peer[465] 	lookupTimeSig:mean 	1.04
scalar Network.dyn_peer[466] 	lookupHopsSig:mean 	7.25
scalar Network.dyn_peer[466] 	lookupTimeSig:mean 	0.8
scalar Network.dyn_peer[467] 	lookupHopsSig:mean 	9.75
scalar Network.dyn_peer[467] 	lookupTimeSig:mean 	1.0666666666667
scalar Network.dyn_peer[468] 	lookupHopsSig:mean 	12
scalar Network.dyn_peer[468] 	lookupTimeSig:mean 	1.29
scalar Network.dyn_peer[469] 	lookupHopsSig:mean 	10.666666666667
scalar Network.dyn_peer[469] 	lookupTimeSig:mean 	1.1555555555556
scalar Network.dyn_peer[470] 	lookupHopsSig:mean 	10.4
scalar Network.dyn_peer[470] 	lookupTimeSig:mean 	1.13
scalar Network.dyn_peer[471] 	lookupHopsSig:mean 	9.125
scalar Network.dyn_peer[471] 	lookupTimeSig:mean 	1
scalar Network.dyn_peer[472] 	lookupHopsSig:mean 	8.7647058823529
scalar Network.dyn_peer[472] 	lookupTimeSig:mean 	0.97058823529412
scalar Network.dyn_peer[473] 	lookupHopsSig:mean 	10.125
scalar Network.dyn_peer[473] 	lookupTimeSig:mean 	1.1
scalar Network.dyn_peer[474] 	lookupHopsSig:mean 	12.066666666667
scalar Network.dyn_peer[474] 	lookupTimeSig:mean 	1.3
scalar Network.dyn_peer[475] 	lookupHopsSig:mean 	12.428571428571
scalar Network.dyn_peer[475] 	lookupTimeSig:mean 	1.3285714285714
scalar Network.dyn_peer[476] 	lookupHopsSig:mean 	12.833333333333
scalar Network.dyn_peer[476] 	lookupTimeSig:mean 	1.3666666666667
scalar Network.dyn_peer[477] 	lookupHopsSig:mean 	8
scalar Network.dyn_peer[477] 	lookupTimeSig:mean 	0.89090909090909
scalar Network.dyn_peer[478] 	lookupHopsSig:mean 	5.4285714285714
scalar Network.dyn_peer[478] 	lookupTimeSig:mean 	0.62857142857143
scalar Network.dyn_peer[479] 	lookupHopsSig:mean 	12.333333333333
scalar Network.dyn_peer[479] 	lookupTimeSig:mean 	1.3166666666667
scalar Network.dyn_peer[480] 	lookupHopsSig:mean 	11.285714285714
scalar Network.dyn_peer[480] 	lookupTimeSig:mean 	1.2142857142857
scalar Network.dyn_peer[481] 	lookupHopsSig:mean 	15.2
scalar Network.dyn_peer[481] 	lookupTimeSig:mean 	1.61
scalar Network.dyn_peer[482] 	lookupHopsSig:mean 	11.611111111111
scalar Network.dyn_peer[482] 	lookupTimeSig:mean 	1.2555555555556
scalar Network.dyn_peer[483] 	lookupHopsSig:mean 	9.1111111111111
scalar Network.dyn_peer[483] 	lookupTimeSig:mean 	1
scalar Network.dyn_peer[484] 	lookupHopsSig:mean 	11
scalar Network.dyn_peer[484] 	lookupTimeSig:mean 	1.1888888888889
scalar Network.dyn_peer[485] 	lookupHopsSig:mean 	8.8
scalar Network.dyn_peer[485] 	lookupTimeSig:mean 	0.96
scalar Network.dyn_peer[486] 	lookupHopsSig:mean 	7.4
scalar Network.dyn_peer[486] 	lookupTimeSig:mean 	0.83
scalar Network.dyn_peer[487] 	lookupHopsSig:mean 	10.769230769231
scalar Network.dyn_peer[487] 	lookupTimeSig:mean 	1.1692307692308
scalar Network.dyn_peer[488] 	lookupHopsSig:mean 	8.4
scalar Network.dyn_peer[488] 	lookupTimeSig:mean 	0.93333333333333
scalar Network.dyn_peer[489] 	lookupHopsSig:mean 	13.666666666667
scalar Network.dyn_peer[489] 	lookupTimeSig:mean 	1.4583333333333
scalar Network.dyn_peer[490] 	lookupHopsSig:mean 	5.8
scalar Network.dyn_peer[490] 	lookupTimeSig:mean 	0.67
scalar Network.dyn_peer[491] 	lookupHopsSig:mean 	7.25
scalar Network.dyn_peer[491] 	lookupTimeSig:mean 	0.8125
scalar Network.dyn_peer[492] 	lookupHopsSig:mean 	10.692307692308
scalar Network.dyn_peer[492] 	lookupTimeSig:mean 	1.1615384615385
scalar Network.dyn_peer[493] 	lookupHopsSig:mean 	11.875
scalar Network.dyn_peer[493] 	lookupTimeSig:mean 	1.275
scalar Network.dyn_peer[494] 	lookupHopsSig:mean 	8.6363636363636
scalar Network.dyn_peer[494] 	lookupTimeSig:mean 	0.95454545454545
scalar Network.dyn_peer[495] 	lookupHopsSig:mean 	12.25
scalar Network.dyn_peer[495] 	lookupTimeSig:mean 	1.3166666666667
scalar Network.dyn_peer[496] 	lookupHopsSig:mean 	9
scalar Network.dyn_peer[496] 	lookupTimeSig:mean 	0.98571428571429
scalar Network.dyn_peer[497] 	lookupHopsSig:mean 	14.909090909091
scalar Network.dyn_peer[497] 	lookupTimeSig:mean 	1.5818181818182
scalar Network.dyn_peer[498] 	lookupHopsSig:mean 	8.8571428571429
scalar Network.dyn_peer[498] 	lookupTimeSig:mean 	0.97142857142857
scalar Network.dyn_peer[499] 	lookupHopsSig:mean 	11.666666666667
scalar Network.dyn_peer[499] 	lookupTimeSig:mean 	1.2633333333333
scalar Network.dyn_peer[500] 	lookupHopsSig:mean 	12.090909090909
scalar Network.dyn_peer[500] 	lookupTimeSig:mean 	1.3045454545455
scalar Network.dyn_peer[501] 	lookupHopsSig:mean 	9.5384615384615
scalar Network.dyn_peer[501] 	lookupTimeSig:mean 	1.05
scalar Network.dyn_peer[502] 	lookupHopsSig:mean 	8.25
scalar Network.dyn_peer[502] 	lookupTimeSig:mean 	0.91666666666667
scalar Network.dyn_peer[503] 	lookupHopsSig:mean 	12.142857142857
scalar Network.dyn_peer[503] 	lookupTimeSig:mean 	1.3071428571429
scalar Network.dyn_peer[504] 	lookupHopsSig:mean 	7.6
scalar Network.dyn_peer[504] 	lookupTimeSig:mean 	0.84
scalar Network.dyn_peer[505] 	lookupHopsSig:mean 	12.4
scalar Network.dyn_peer[505] 	lookupTimeSig:mean 	1.32
scalar Network.dyn_peer[506] 	lookupHopsSig:mean 	14
scalar Network.dyn_peer[506] 	lookupTimeSig:mean 	1.4947368421053
scalar Network.dyn_peer[507] 	lookupHopsSig:mean 	9.3333333333333
scalar Network.dyn_peer[507] 	lookupTimeSig:mean 	1.0222222222222
scalar Network.dyn_peer[508] 	lookupHopsSig:mean 	10.714285714286
scalar Network.dyn_peer[508] 	lookupTimeSig:mean 	1.1571428571429
scalar Network.dyn_peer[509] 	lookupHopsSig:mean 	8.8571428571429
scalar Network.dyn_peer[509] 	lookupTimeSig:mean 	0.97142857142857
scalar Network.dyn_peer[510] 	lookupHopsSig:mean 	8.4444444444444
scalar Network.dyn_peer[510] 	lookupTimeSig:mean 	0.93333333333333
scalar Network.dyn_peer[511] 	lookupHopsSig:mean 	7.4285714285714
scalar Network.dyn_peer[511] 	lookupTimeSig:mean 	0.82857142857143
scalar Network.dyn_peer[512] 	lookupHopsSig:mean 	12.75
scalar Network.dyn_peer[512] 	lookupTimeSig:mean 	1.3666666666667
scalar Network.dyn_peer[513] 	lookupHopsSig:mean 	9.1111111111111
scalar Network.dyn_peer[513] 	lookupTimeSig:mean 	1
scalar Network.dyn_peer[514] 	lookupHopsSig:mean 	12
scalar Network.dyn_peer[514] 	lookupTimeSig:mean 	1.2888888888889
scalar Network.dyn_peer[515] 	lookupHopsSig:mean 	15.285714285714
scalar Network.dyn_peer[515] 	lookupTimeSig:mean 	1.6142857142857
scalar Network.dyn_peer[516] 	lookupHopsSig:mean 	10.777777777778
scalar Network.dyn_peer[516] 	lookupTimeSig:mean 	1.1666666666667
scalar Network.dyn_peer[517] 	lookupHopsSig:mean 	7.75
scalar Network.dyn_peer[517] 	lookupTimeSig:mean 	0.85
scalar Network.dyn_peer[518] 	lookupHopsSig:mean 	12.428571428571
scalar Network.dyn_peer[518] 	lookupTimeSig:mean 	1.3285714285714
scalar Network.dyn_peer[519] 	lookupHopsSig:mean 	7.2142857142857
scalar Network.dyn_peer[519] 	lookupTimeSig:mean 	0.81428571428571
scalar Network.dyn_peer[520] 	lookupHopsSig:mean 	11.6
scalar Network.dyn_peer[520] 	lookupTimeSig:mean 	1.25
scalar Network.dyn_peer[521] 	lookupHopsSig:mean 	16
scalar Network.dyn_peer[521] 	lookupTimeSig:mean 	1.6857142857143
scalar Network.dyn_peer[522] 	lookupHopsSig:mean 	11.571428571429
scalar Network.dyn_peer[522] 	lookupTimeSig:mean 	1.2428571428571
scalar Network.dyn_peer[523] 	lookupHopsSig:mean 	7.8
scalar Network.dyn_peer[523] 	lookupTimeSig:mean 	0.87
scalar Network.dyn_peer[524] 	lookupHopsSig:mean 	9.2857142857143
scalar Network.dyn_peer[524] 	lookupTimeSig:mean 	1.0142857142857
scalar Network.dyn_peer[525] 	lookupHopsSig:mean 	12.705882352941
scalar Network.dyn_peer[525] 	lookupTimeSig:mean 	1.3647058823529
scalar Network.dyn_peer[526] 	lookupHopsSig:mean 	8.3684210526316
scalar Network.dyn_peer[526] 	lookupTimeSig:mean 	0.93157894736842
scalar Network.dyn_peer[527] 	lookupHopsSig:mean 	11.857142857143
scalar Network.dyn_peer[527] 	lookupTimeSig:mean 	1.2714285714286
scalar Network.dyn_peer[528] 	lookupHopsSig:mean 	11.666666666667
scalar Network.dyn_peer[528] 	lookupTimeSig:mean 	1.2555555555556
scalar Network.dyn_peer[529] 	lookupHopsSig:mean 	7.125
scalar Network.dyn_peer[529] 	lookupTimeSig:mean 	0.8
scalar Network.dyn_peer[530] 	lookupHopsSig:mean 	9.7142857142857
scalar Network.dyn_peer[530] 	lookupTimeSig:mean 	1.0571428571429
scalar Network.dyn_peer[531] 	lookupHopsSig:mean 	7.4285714285714
scalar Network.dyn_peer[531] 	lookupTimeSig:mean 	0.82857142857143
scalar Network.dyn_peer[532] 	lookupHopsSig:mean 	10.555555555556
scalar Network.dyn_peer[532] 	lookupTimeSig:mean 	1.1444444444444
scalar Network.dyn_peer[533] 	lookupHopsSig:mean 	10.4
scalar Network.dyn_peer[533] 	lookupTimeSig:mean 	1.13
scalar Network.dyn_peer[534] 	lookupHopsSig:mean 	8.6666666666667
scalar Network.dyn_peer[534] 	lookupTimeSig:mean 	0.95555555555556
scalar Network.dyn_peer[535] 	lookupHopsSig:mean 	10.25
scalar Network.dyn_peer[535] 	lookupTimeSig:mean 	1.1125
scalar Network.dyn_peer[536] 	lookupHopsSig:mean 	10.733333333333
scalar Network.dyn_peer[536] 	lookupTimeSig:mean 	1.1666666666667
scalar Network.dyn_peer[537] 	lookupHopsSig:mean 	11.578947368421
scalar Network.dyn_peer[537] 	lookupTimeSig:mean 	1.2526315789474
scalar Network.dyn_peer[538] 	lookupHopsSig:mean 	11.333333333333
scalar Network.dyn_peer[538] 	lookupTimeSig:mean 	1.2222222222222
scalar Network.dyn_peer[539] 	lookupHopsSig:mean 	9.2727272727273
scalar Network.dyn_peer[539] 	lookupTimeSig:mean 	1.0181818181818
scalar Network.dyn_peer[540] 	lookupHopsSig:mean 	13.125
scalar Network.dyn_peer[540] 	lookupTimeSig:mean 	1.4
scalar Network.dyn_peer[541] 	lookupHopsSig:mean 	8
scalar Network.dyn_peer[541] 	lookupTimeSig:mean 	0.88333333333333
scalar Network.dyn_peer[542] 	lookupHopsSig:mean 	6.6666666666667
scalar Network.dyn_peer[542] 	lookupTimeSig:mean 	0.75555555555556
scalar Network.dyn_peer[543] 	lookupHopsSig:mean 	8.5
scalar Network.dyn_peer[543] 	lookupTimeSig:mean 	0.94285714285714
scalar Network.dyn_peer[544] 	lookupHopsSig:mean 	8
scalar Network.dyn_peer[544] 	lookupTimeSig:mean 	0.88571428571429
scalar Network.dyn_peer[545] 	lookupHopsSig:mean 	13.833333333333
scalar Network.dyn_peer[545] 	lookupTimeSig:mean 	1.4666666666667
scalar Network.dyn_peer[546] 	lookupHopsSig:mean 	13.230769230769
scalar Network.dyn_peer[546] 	lookupTimeSig:mean 	1.4192307692308
scalar Network.dyn_peer[547] 	lookupHopsSig:mean 	14.4
scalar Network.dyn_peer[547] 	lookupTimeSig:mean 	1.52
scalar Network.dyn_peer[548] 	lookupHopsSig:mean 	9.75
scalar Network.dyn_peer[548] 	lookupTimeSig:mean 	1.0625
scalar Network.dyn_peer[549] 	lookupHopsSig:mean 	11.8
scalar Network.dyn_peer[549] 	lookupTimeSig:mean 	1.27
scalar Network.dyn_peer[550] 	lookupHopsSig:mean 	13.130434782609
scalar Network.dyn_peer[550] 	lookupTimeSig:mean 	1.4086956521739
scalar Network.dyn_peer[551] 	lookupHopsSig:mean 	11.428571428571
scalar Network.dyn_peer[551] 	lookupTimeSig:mean 	1.2285714285714
scalar Network.dyn_peer[552] 	lookupHopsSig:mean 	8
scalar Network.dyn_peer[552] 	lookupTimeSig:mean 	0.88888888888889
scalar Network.dyn_peer[553] 	lookupHopsSig:mean 	11.25
scalar Network.dyn_peer[553] 	lookupTimeSig:mean 	1.2125
scalar Network.dyn_peer[554] 	lookupHopsSig:mean 	6.5555555555556
scalar Network.dyn_peer[554] 	lookupTimeSig:mean 	0.74444444444444
scalar Network.dyn_peer[555] 	lookupHopsSig:mean 	11
scalar Network.dyn_peer[555] 	lookupTimeSig:mean 	1.1875
scalar Network.dyn_peer[556] 	lookupHopsSig:mean 	17.333333333333
scalar Network.dyn_peer[556] 	lookupTimeSig:mean 	1.8166666666667
scalar Network.dyn_peer[557] 	lookupHopsSig:mean 	11.166666666667
scalar Network.dyn_peer[557] 	lookupTimeSig:mean 	1.2
scalar Network.dyn_peer[558] 	lookupHopsSig:mean 	9
scalar Network.dyn_peer[558] 	lookupTimeSig:mean 	0.98333333333333
scalar Network.dyn_peer[559] 	lookupHopsSig:mean 	8.9166666666667
scalar Network.dyn_peer[559] 	lookupTimeSig:mean 	0.98333333333333
scalar Network.dyn_peer[560] 	lookupHopsSig:mean 	12.285714285714
scalar Network.dyn_peer[560] 	lookupTimeSig:mean 	1.3142857142857
scalar Network.dyn_peer[561] 	lookupHopsSig:mean 	9
scalar Network.dyn_peer[561] 	lookupTimeSig:mean 	0.99166666666667
scalar Network.dyn_peer[562] 	lookupHopsSig:mean 	9.7894736842105
scalar Network.dyn_peer[562] 	lookupTimeSig:mean 	1.0736842105263
scalar Network.dyn_peer[563] 	lookupHopsSig:mean 	10.111111111111
scalar Network.dyn_peer[563] 	lookupTimeSig:mean 	1.1
scalar Network.dyn_peer[564] 	lookupHopsSig:mean 	14.428571428571
scalar Network.dyn_peer[564] 	lookupTimeSig:mean 	1.5285714285714
scalar Network.dyn_peer[565] 	lookupHopsSig:mean 	12
scalar Network.dyn_peer[565] 	lookupTimeSig:mean 	1.2875
scalar Network.dyn_peer[566] 	lookupHopsSig:mean 	7
scalar Network.dyn_peer[566] 	lookupTimeSig:mean 	0.78888888888889
scalar Network.dyn_peer[567] 	lookupHopsSig:mean 	9.25
scalar Network.dyn_peer[567] 	lookupTimeSig:mean 	1.0166666666667
scalar Network.dyn_peer[568] 	lookupHopsSig:mean 	9.625
scalar Network.dyn_peer[568] 	lookupTimeSig:mean 	1.05
scalar Network.dyn_peer[569] 	lookupHopsSig:mean 	11.111111111111
scalar Network.dyn_peer[569] 	lookupTimeSig:mean 	1.2074074074074
scalar Network.dyn_peer[570] 	lookupHopsSig:mean 	9.7647058823529
scalar Network.dyn_peer[570] 	lookupTimeSig:mean 	1.0705882352941
scalar Network.dyn_peer[571] 	lookupHopsSig:mean 	13.727272727273
scalar Network.dyn_peer[571] 	lookupTimeSig:mean 	1.4636363636364
scalar Network.dyn_peer[572] 	lookupHopsSig:mean 	9.5555555555556
scalar Network.dyn_peer[572] 	lookupTimeSig:mean 	1.0444444444444
scalar Network.dyn_peer[573] 	lookupHopsSig:mean 	12.857142857143
scalar Network.dyn_peer[573] 	lookupTimeSig:mean 	1.3714285714286
scalar Network.dyn_peer[574] 	lookupHopsSig:mean 	11.142857142857
scalar Network.dyn_peer[574] 	lookupTimeSig:mean 	1.2
scalar Network.dyn_peer[575] 	lookupHopsSig:mean 	10.1
scalar Network.dyn_peer[575] 	lookupTimeSig:mean 	1.1
scalar Network.dyn_peer[576] 	lookupHopsSig:mean 	9.2142857142857
scalar Network.dyn_peer[576] 	lookupTimeSig:mean 	1.0142857142857
scalar Network.dyn_peer[577] 	lookupHopsSig:mean 	13.266666666667
scalar Network.dyn_peer[577] 	lookupTimeSig:mean 	1.42
scalar Network.dyn_peer[578] 	lookupHopsSig:mean 	7.2
scalar Network.dyn_peer[578] 	lookupTimeSig:mean 	0.8
scalar Network.dyn_peer[579] 	lookupHopsSig:mean 	14.352941176471
scalar Network.dyn_peer[579] 	lookupTimeSig:mean 	1.5294117647059
scalar Network.dyn_peer[580] 	lookupHopsSig:mean 	11
scalar Network.dyn_peer[580] 	lookupTimeSig:mean 	1.1875
scalar Network.dyn_peer[581] 	lookupHopsSig:mean 	9.4285714285714
scalar Network.dyn_peer[581] 	lookupTimeSig:mean 	1.0285714285714
scalar Network.dyn_peer[582] 	lookupHopsSig:mean 	11.875
scalar Network.dyn_peer[582] 	lookupTimeSig:mean 	1.275
scalar Network.dyn_peer[583] 	lookupHopsSig:mean 	9.5
scalar Network.dyn_peer[583] 	lookupTimeSig:mean 	1.0375
scalar Network.dyn_peer[584] 	lookupHopsSig:mean 	12.857142857143
scalar Network.dyn_peer[584] 	lookupTimeSig:mean 	1.3714285714286
scalar Network.dyn_peer[585] 	lookupHopsSig:mean 	11.555555555556
scalar Network.dyn_peer[585] 	lookupTimeSig:mean 	1.2444444444444
scalar Network.dyn_peer[586] 	lookupHopsSig:mean 	13.4
scalar Network.dyn_peer[586] 	lookupTimeSig:mean 	1.42
scalar Network.dyn_peer[587] 	lookupHopsSig:mean 	12.25
scalar Network.dyn_peer[587] 	lookupTimeSig:mean 	1.3125
scalar Network.dyn_peer[588] 	lookupHopsSig:mean 	8.5714285714286
scalar Network.dyn_peer[588] 	lookupTimeSig:mean 	0.95
scalar Network.dyn_peer[589] 	lookupHopsSig:mean 	10.25
scalar Network.dyn_peer[589] 	lookupTimeSig:mean 	1.1125
scalar Network.dyn_peer[590] 	lookupHopsSig:mean 	11.75
scalar Network.dyn_peer[590] 	lookupTimeSig:mean 	1.25
scalar Network.dyn_peer[591] 	lookupHopsSig:mean 	12
scalar Network.dyn_peer[591] 	lookupTimeSig:mean 	1.2941176470588
scalar Network.dyn_peer[592] 	lookupHopsSig:mean 	17.222222222222
scalar Network.dyn_peer[592] 	lookupTimeSig:mean 	1.8111111111111
scalar Network.dyn_peer[593] 	lookupHopsSig:mean 	10
scalar Network.dyn_peer[593] 	lookupTimeSig:mean 	1.0857142857143
scalar Network.dyn_peer[594] 	lookupHopsSig:mean 	14.111111111111
scalar Network.dyn_peer[594] 	lookupTimeSig:mean 	1.5
scalar Network.dyn_peer[595] 	lookupHopsSig:mean 	8.8333333333333
scalar Network.dyn_peer[595] 	lookupTimeSig:mean 	0.975
scalar Network.dyn_peer[596] 	lookupHopsSig:mean 	13
scalar Network.dyn_peer[596] 	lookupTimeSig:mean 	1.375
scalar Network.dyn_peer[597] 	lookupHopsSig:mean 	14.2
scalar Network.dyn_peer[597] 	lookupTimeSig:mean 	1.5
scalar Network.dyn_peer[598] 	lookupHopsSig:mean 	16.285714285714
scalar Network.dyn_peer[598] 	lookupTimeSig:mean 	1.7142857142857
scalar Network.dyn_peer[599] 	lookupHopsSig:mean 	14.25
scalar Network.dyn_peer[599] 	lookupTimeSig:mean 	1.5125
scalar Network.dyn_peer[600] 	lookupHopsSig:mean 	14.214285714286
scalar Network.dyn_peer[600] 	lookupTimeSig:mean 	1.5142857142857
scalar Network.dyn_peer[601] 	lookupHopsSig:mean 	12.555555555556
scalar Network.dyn_peer[601] 	lookupTimeSig:mean 	1.3444444444444
scalar Network.dyn_peer[602] 	lookupHopsSig:mean 	13.538461538462
scalar Network.dyn_peer[602] 	lookupTimeSig:mean 	1.4461538461538
scalar Network.dyn_peer[603] 	lookupHopsSig:mean 	10
scalar Network.dyn_peer[603] 	lookupTimeSig:mean 	1.0857142857143
scalar Network.dyn_peer[604] 	lookupHopsSig:mean 	11.888888888889
scalar Network.dyn_peer[604] 	lookupTimeSig:mean 	1.2777777777778
scalar Network.dyn_peer[605] 	lookupHopsSig:mean 	13.45
scalar Network.dyn_peer[605] 	lookupTimeSig:mean 	1.44
scalar Network.dyn_peer[606] 	lookupHopsSig:mean 	15
scalar Network.dyn_peer[606] 	lookupTimeSig:mean 	1.5857142857143
scalar Network.dyn_peer[607] 	lookupHopsSig:mean 	10
scalar Network.dyn_peer[607] 	lookupTimeSig:mean 	1.0916666666667
scalar Network.dyn_peer[608] 	lookupHopsSig:mean 	8.6666666666667
scalar Network.dyn_peer[608] 	lookupTimeSig:mean 	0.95555555555556
scalar Network.dyn_peer[609] 	lookupHopsSig:mean 	11.230769230769
scalar Network.dyn_peer[609] 	lookupTimeSig:mean 	1.2153846153846
scalar Network.dyn_peer[610] 	lookupHopsSig:mean 	11.5
scalar Network.dyn_peer[610] 	lookupTimeSig:mean 	1.2416666666667
scalar Network.dyn_peer[611] 	lookupHopsSig:mean 	11.333333333333
scalar Network.dyn_peer[611] 	lookupTimeSig:mean 	1.2266666666667
scalar Network.dyn_peer[612] 	lookupHopsSig:mean 	8
scalar Network.dyn_peer[612] 	lookupTimeSig:mean 	0.88888888888889
scalar Network.dyn_peer[613] 	lookupHopsSig:mean 	14.75
scalar Network.dyn_peer[613] 	lookupTimeSig:mean 	1.5666666666667
scalar Network.dyn_peer[614] 	lookupHopsSig:mean 	9.3
scalar Network.dyn_peer[614] 	lookupTimeSig:mean 	1.02
scalar Network.dyn_peer[615] 	lookupHopsSig:mean 	12.857142857143
scalar Network.dyn_peer[615] 	lookupTimeSig:mean 	1.3714285714286
scalar Network.dyn_peer[616] 	lookupHopsSig:mean 	15.2
scalar Network.dyn_peer[616] 	lookupTimeSig:mean 	1.61
scalar Network.dyn_peer[617] 	lookupHopsSig:mean 	10.666666666667
scalar Network.dyn_peer[617] 	lookupTimeSig:mean 	1.15
scalar Network.dyn_peer[618] 	lookupHopsSig:mean 	13.769230769231
scalar Network.dyn_peer[618] 	lookupTimeSig:mean 	1.4692307692308
scalar Network.dyn_peer[619] 	lookupHopsSig:mean 	14.8
scalar Network.dyn_peer[619] 	lookupTimeSig:mean 	1.56
scalar Network.dyn_peer[620] 	lookupHopsSig:mean 	15.5
scalar Network.dyn_peer[620] 	lookupTimeSig:mean 	1.6375
scalar Network.dyn_peer[621] 	lookupHopsSig:mean 	12.75
scalar Network.dyn_peer[621] 	lookupTimeSig:mean 	1.35
scalar Network.dyn_peer[622] 	lookupHopsSig:mean 	10.6
scalar Network.dyn_peer[622] 	lookupTimeSig:mean 	1.14
scalar Network.dyn_peer[623] 	lookupHopsSig:mean 	12.428571428571
scalar Network.dyn_peer[623] 	lookupTimeSig:mean 	1.3357142857143
scalar Network.dyn_peer[624] 	lookupHopsSig:mean 	12.25
scalar Network.dyn_peer[624] 	lookupTimeSig:mean 	1.3125
scalar Network.dyn_peer[625] 	lookupHopsSig:mean 	13.666666666667
scalar Network.dyn_peer[625] 	lookupTimeSig:mean 	1.45
scalar Network.dyn_peer[626] 	lookupHopsSig:mean 	11.555555555556
scalar Network.dyn_peer[626] 	lookupTimeSig:mean 	1.2444444444444
scalar Network.dyn_peer[627] 	lookupHopsSig:mean 	8.7142857142857
scalar Network.dyn_peer[627] 	lookupTimeSig:mean 	0.95714285714286
scalar Network.dyn_peer[628] 	lookupHopsSig:mean 	14.5
scalar Network.dyn_peer[628] 	lookupTimeSig:mean 	1.5375
scalar Network.dyn_peer[629] 	lookupHopsSig:mean 	11.125
scalar Network.dyn_peer[629] 	lookupTimeSig:mean 	1.20625
scalar Network.dyn_peer[630] 	lookupHopsSig:mean 	7.5
scalar Network.dyn_peer[630] 	lookupTimeSig:mean 	0.83333333333333
scalar Network.dyn_peer[631] 	lookupHopsSig:mean 	10.777777777778
scalar Network.dyn_peer[631] 	lookupTimeSig:mean 	1.1666666666667
scalar Network.dyn_peer[632] 	lookupHopsSig:mean 	9.6
scalar Network.dyn_peer[632] 	lookupTimeSig:mean 	1.05
scalar Network.dyn_peer[633] 	lookupHopsSig:mean 	15.916666666667
scalar Network.dyn_peer[633] 	lookupTimeSig:mean 	1.6833333333333
scalar Network.dyn_peer[634] 	lookupHopsSig:mean 	9.1111111111111
scalar Network.dyn_peer[634] 	lookupTimeSig:mean 	1
scalar Network.dyn_peer[635] 	lookupHopsSig:mean 	10.125
scalar Network.dyn_peer[635] 	lookupTimeSig:mean 	1.1
scalar Network.dyn_peer[636] 	lookupHopsSig:mean 	12
scalar Network.dyn_peer[636] 	lookupTimeSig:mean 	1.2888888888889
scalar Network.dyn_peer[637] 	lookupHopsSig:mean 	15.857142857143
scalar Network.dyn_peer[637] 	lookupTimeSig:mean 	1.6714285714286
scalar Network.dyn_peer[638] 	lookupHopsSig:mean 	13
scalar Network.dyn_peer[638] 	lookupTimeSig:mean 	1.3941176470588
scalar Network.dyn_peer[639] 	lookupHopsSig:mean 	12.3
scalar Network.dyn_peer[639] 	lookupTimeSig:mean 	1.32
scalar Network.dyn_peer[640] 	lookupHopsSig:mean 	8.1666666666667
scalar Network.dyn_peer[640] 	lookupTimeSig:mean 	0.9
scalar Network.dyn_peer[641] 	lookupHopsSig:mean 	18.166666666667
scalar Network.dyn_peer[641] 	lookupTimeSig:mean 	1.9
scalar Network.dyn_peer[642] 	lookupHopsSig:mean 	8.4545454545455
scalar Network.dyn_peer[642] 	lookupTimeSig:mean 	0.93636363636364
[...]
scalar Network.dyn_peer[836] 	lookupTimeSig:mean 	1.2625
scalar Network.dyn_peer[837] 	lookupHopsSig:mean 	16
scalar Network.dyn_peer[837] 	lookupTimeSig:mean 	1.68
scalar Network.dyn_peer[838] 	lookupHopsSig:mean 	12.090909090909
scalar Network.dyn_peer[838] 	lookupTimeSig:mean 	1.3
scalar Network.dyn_peer[839] 	lookupHopsSig:mean 	13.5
scalar Network.dyn_peer[839] 	lookupTimeSig:mean 	1.4375
scalar Network.dyn_peer[840] 	lookupHopsSig:mean 	16.454545454545
scalar Network.dyn_peer[840] 	lookupTimeSig:mean 	1.7363636363636
scalar Network.dyn_peer[841] 	lookupHopsSig:mean 	10.8
scalar Network.dyn_peer[841] 	lookupTimeSig:mean 	1.16
scalar Network.dyn_peer[842] 	lookupHopsSig:mean 	10.625
scalar Network.dyn_peer[842] 	lookupTimeSig:mean 	1.15
scalar Network.dyn_peer[843] 	lookupHopsSig:mean 	15.4
scalar Network.dyn_peer[843] 	lookupTimeSig:mean 	1.63
scalar Network.dyn_peer[844] 	lookupHopsSig:mean 	14.2
scalar Network.dyn_peer[844] 	lookupTimeSig:mean 	1.51
scalar Network.dyn_peer[845] 	lookupHopsSig:mean 	14.75
scalar Network.dyn_peer[845] 	lookupTimeSig:mean 	1.5666666666667
scalar Network.dyn_peer[846] 	lookupHopsSig:mean 	12.583333333333
scalar Network.dyn_peer[846] 	lookupTimeSig:mean 	1.35
scalar Network.dyn_peer[847] 	lookupHopsSig:mean 	9.5
scalar Network.dyn_peer[847] 	lookupTimeSig:mean 	1.025
scalar Network.dyn_peer[848] 	lookupHopsSig:mean 	17.571428571429
scalar Network.dyn_peer[848] 	lookupTimeSig:mean 	1.8428571428571
scalar Network.dyn_peer[849] 	lookupHopsSig:mean 	11.222222222222
scalar Network.dyn_peer[849] 	lookupTimeSig:mean 	1.2111111111111
scalar Network.dyn_peer[850] 	lookupHopsSig:mean 	11.333333333333
scalar Network.dyn_peer[850] 	lookupTimeSig:mean 	1.2222222222222
scalar Network.dyn_peer[851] 	lookupHopsSig:mean 	10.636363636364
scalar Network.dyn_peer[851] 	lookupTimeSig:mean 	1.1545454545455
scalar Network.dyn_peer[852] 	lookupHopsSig:mean 	11
scalar Network.dyn_peer[852] 	lookupTimeSig:mean 	1.1833333333333
scalar Network.dyn_peer[853] 	lookupHopsSig:mean 	18.166666666667
scalar Network.dyn_peer[853] 	lookupTimeSig:mean 	1.9083333333333
scalar Network.dyn_peer[854] 	lookupHopsSig:mean 	11.714285714286
scalar Network.dyn_peer[854] 	lookupTimeSig:mean 	1.2571428571429
scalar Network.dyn_peer[855] 	lookupHopsSig:mean 	14
scalar Network.dyn_peer[855] 	lookupTimeSig:mean 	1.4875
scalar Network.dyn_peer[856] 	lookupHopsSig:mean 	11.142857142857
scalar Network.dyn_peer[856] 	lookupTimeSig:mean 	1.2071428571429
scalar Network.dyn_peer[857] 	lookupHopsSig:mean 	15.166666666667
scalar Network.dyn_peer[857] 	lookupTimeSig:mean 	1.6
scalar Network.dyn_peer[858] 	lookupHopsSig:mean 	15.888888888889
scalar Network.dyn_peer[858] 	lookupTimeSig:mean 	1.6777777777778
scalar Network.dyn_peer[859] 	lookupHopsSig:mean 	17.692307692308
scalar Network.dyn_peer[859] 	lookupTimeSig:mean 	1.8615384615385
scalar Network.dyn_peer[860] 	lookupHopsSig:mean 	11.888888888889
scalar Network.dyn_peer[860] 	lookupTimeSig:mean 	1.2777777777778
scalar Network.dyn_peer[861] 	lookupHopsSig:mean 	14.166666666667
scalar Network.dyn_peer[861] 	lookupTimeSig:mean 	1.5
scalar Network.dyn_peer[862] 	lookupHopsSig:mean 	12.923076923077
scalar Network.dyn_peer[862] 	lookupTimeSig:mean 	1.3846153846154
scalar Network.dyn_peer[863] 	lookupHopsSig:mean 	15.4
scalar Network.dyn_peer[863] 	lookupTimeSig:mean 	1.62
scalar Network.dyn_peer[864] 	lookupHopsSig:mean 	14.888888888889
scalar Network.dyn_peer[864] 	lookupTimeSig:mean 	1.5777777777778
scalar Network.dyn_peer[865] 	lookupHopsSig:mean 	13.4
scalar Network.dyn_peer[865] 	lookupTimeSig:mean 	1.42
scalar Network.dyn_peer[866] 	lookupHopsSig:mean 	10.9
scalar Network.dyn_peer[866] 	lookupTimeSig:mean 	1.18
scalar Network.dyn_peer[867] 	lookupHopsSig:mean 	10.8
scalar Network.dyn_peer[867] 	lookupTimeSig:mean 	1.17
scalar Network.dyn_peer[868] 	lookupHopsSig:mean 	13.461538461538
scalar Network.dyn_peer[868] 	lookupTimeSig:mean 	1.4384615384615
scalar Network.dyn_peer[869] 	lookupHopsSig:mean 	11.272727272727
scalar Network.dyn_peer[869] 	lookupTimeSig:mean 	1.2181818181818
scalar Network.dyn_peer[870] 	lookupHopsSig:mean 	16.333333333333
scalar Network.dyn_peer[870] 	lookupTimeSig:mean 	1.7222222222222
scalar Network.dyn_peer[871] 	lookupHopsSig:mean 	18.9
scalar Network.dyn_peer[871] 	lookupTimeSig:mean 	1.98
scalar Network.dyn_peer[872] 	lookupHopsSig:mean 	21
scalar Network.dyn_peer[872] 	lookupTimeSig:mean 	2.1916666666667
scalar Network.dyn_peer[873] 	lookupHopsSig:mean 	16.142857142857
scalar Network.dyn_peer[873] 	lookupTimeSig:mean 	1.7071428571429
scalar Network.dyn_peer[874] 	lookupHopsSig:mean 	10.818181818182
scalar Network.dyn_peer[874] 	lookupTimeSig:mean 	1.1727272727273
scalar Network.dyn_peer[875] 	lookupHopsSig:mean 	14
scalar Network.dyn_peer[875] 	lookupTimeSig:mean 	1.4875
scalar Network.dyn_peer[876] 	lookupHopsSig:mean 	11.888888888889
scalar Network.dyn_peer[876] 	lookupTimeSig:mean 	1.2777777777778
scalar Network.dyn_peer[877] 	lookupHopsSig:mean 	15.538461538462
scalar Network.dyn_peer[877] 	lookupTimeSig:mean 	1.6461538461538
scalar Network.dyn_peer[878] 	lookupHopsSig:mean 	7.8888888888889
scalar Network.dyn_peer[878] 	lookupTimeSig:mean 	0.87777777777778
scalar Network.dyn_peer[879] 	lookupHopsSig:mean 	11.916666666667
scalar Network.dyn_peer[879] 	lookupTimeSig:mean 	1.2833333333333
scalar Network.dyn_peer[880] 	lookupHopsSig:mean 	13.416666666667
scalar Network.dyn_peer[880] 	lookupTimeSig:mean 	1.4333333333333
scalar Network.dyn_peer[881] 	lookupHopsSig:mean 	13.3
scalar Network.dyn_peer[881] 	lookupTimeSig:mean 	1.42
scalar Network.dyn_peer[882] 	lookupHopsSig:mean 	19.625
scalar Network.dyn_peer[882] 	lookupTimeSig:mean 	2.05
scalar Network.dyn_peer[883] 	lookupHopsSig:mean 	11.5
scalar Network.dyn_peer[883] 	lookupTimeSig:mean 	1.24
scalar Network.dyn_peer[884] 	lookupHopsSig:mean 	13.625
scalar Network.dyn_peer[884] 	lookupTimeSig:mean 	1.45
scalar Network.dyn_peer[885] 	lookupHopsSig:mean 	12.625
scalar Network.dyn_peer[885] 	lookupTimeSig:mean 	1.35
scalar Network.dyn_peer[886] 	lookupHopsSig:mean 	12.5
scalar Network.dyn_peer[886] 	lookupTimeSig:mean 	1.325
scalar Network.dyn_peer[887] 	lookupHopsSig:mean 	10.571428571429
scalar Network.dyn_peer[887] 	lookupTimeSig:mean 	1.1428571428571
scalar Network.dyn_peer[888] 	lookupHopsSig:mean 	14
scalar Network.dyn_peer[888] 	lookupTimeSig:mean 	1.4909090909091
scalar Network.dyn_peer[889] 	lookupHopsSig:mean 	13.714285714286
scalar Network.dyn_peer[889] 	lookupTimeSig:mean 	1.4571428571429
scalar Network.dyn_peer[890] 	lookupHopsSig:mean 	14.3
scalar Network.dyn_peer[890] 	lookupTimeSig:mean 	1.52
scalar Network.dyn_peer[891] 	lookupHopsSig:mean 	18
scalar Network.dyn_peer[891] 	lookupTimeSig:mean 	1.8909090909091
scalar Network.dyn_peer[892] 	lookupHopsSig:mean 	15.857142857143
scalar Network.dyn_peer[892] 	lookupTimeSig:mean 	1.6714285714286
scalar Network.dyn_peer[893] 	lookupHopsSig:mean 	25
scalar Network.dyn_peer[893] 	lookupTimeSig:mean 	2.58
scalar Network.dyn_peer[894] 	lookupHopsSig:mean 	10.8
scalar Network.dyn_peer[894] 	lookupTimeSig:mean 	1.17
scalar Network.dyn_peer[895] 	lookupHopsSig:mean 	17.5
scalar Network.dyn_peer[895] 	lookupTimeSig:mean 	1.8375
scalar Network.dyn_peer[896] 	lookupHopsSig:mean 	14.285714285714
scalar Network.dyn_peer[896] 	lookupTimeSig:mean 	1.5214285714286
scalar Network.dyn_peer[897] 	lookupHopsSig:mean 	11.222222222222
scalar Network.dyn_peer[897] 	lookupTimeSig:mean 	1.2111111111111
scalar Network.dyn_peer[898] 	lookupHopsSig:mean 	15.166666666667
scalar Network.dyn_peer[898] 	lookupTimeSig:mean 	1.6
scalar Network.dyn_peer[899] 	lookupHopsSig:mean 	15.888888888889
scalar Network.dyn_peer[899] 	lookupTimeSig:mean 	1.6777777777778
scalar Network.dyn_peer[900] 	lookupHopsSig:mean 	13.25
scalar Network.dyn_peer[900] 	lookupTimeSig:mean 	1.4125
scalar Network.dyn_peer[901] 	lookupHopsSig:mean 	12.5
scalar Network.dyn_peer[901] 	lookupTimeSig:mean 	1.3375
scalar Network.dyn_peer[902] 	lookupHopsSig:mean 	14
scalar Network.dyn_peer[902] 	lookupTimeSig:mean 	1.4666666666667
scalar Network.dyn_peer[903] 	lookupHopsSig:mean 	8.625
scalar Network.dyn_peer[903] 	lookupTimeSig:mean 	0.95
scalar Network.dyn_peer[904] 	lookupHopsSig:mean 	13.928571428571
scalar Network.dyn_peer[904] 	lookupTimeSig:mean 	1.4857142857143
scalar Network.dyn_peer[905] 	lookupHopsSig:mean 	12.857142857143
scalar Network.dyn_peer[905] 	lookupTimeSig:mean 	1.3714285714286
scalar Network.dyn_peer[906] 	lookupHopsSig:mean 	13.769230769231
scalar Network.dyn_peer[906] 	lookupTimeSig:mean 	1.4692307692308
scalar Network.dyn_peer[907] 	lookupHopsSig:mean 	13.157894736842
scalar Network.dyn_peer[907] 	lookupTimeSig:mean 	1.4105263157895
scalar Network.dyn_peer[908] 	lookupHopsSig:mean 	15.363636363636
scalar Network.dyn_peer[908] 	lookupTimeSig:mean 	1.6272727272727
scalar Network.dyn_peer[909] 	lookupHopsSig:mean 	17.5
scalar Network.dyn_peer[909] 	lookupTimeSig:mean 	1.84
scalar Network.dyn_peer[910] 	lookupHopsSig:mean 	17
scalar Network.dyn_peer[910] 	lookupTimeSig:mean 	1.775
scalar Network.dyn_peer[911] 	lookupHopsSig:mean 	13
scalar Network.dyn_peer[911] 	lookupTimeSig:mean 	1.39
scalar Network.dyn_peer[912] 	lookupHopsSig:mean 	10.142857142857
scalar Network.dyn_peer[912] 	lookupTimeSig:mean 	1.1
scalar Network.dyn_peer[913] 	lookupHopsSig:mean 	15.5
scalar Network.dyn_peer[913] 	lookupTimeSig:mean 	1.625
scalar Network.dyn_peer[914] 	lookupHopsSig:mean 	18.1
scalar Network.dyn_peer[914] 	lookupTimeSig:mean 	1.9
scalar Network.dyn_peer[915] 	lookupHopsSig:mean 	10.333333333333
scalar Network.dyn_peer[915] 	lookupTimeSig:mean 	1.1166666666667
scalar Network.dyn_peer[916] 	lookupHopsSig:mean 	17.285714285714
scalar Network.dyn_peer[916] 	lookupTimeSig:mean 	1.8142857142857
scalar Network.dyn_peer[917] 	lookupHopsSig:mean 	14.4
scalar Network.dyn_peer[917] 	lookupTimeSig:mean 	1.53
scalar Network.dyn_peer[918] 	lookupHopsSig:mean 	14.875
scalar Network.dyn_peer[918] 	lookupTimeSig:mean 	1.575
scalar Network.dyn_peer[919] 	lookupHopsSig:mean 	12.272727272727
scalar Network.dyn_peer[919] 	lookupTimeSig:mean 	1.3181818181818
scalar Network.dyn_peer[920] 	lookupHopsSig:mean 	10.3
scalar Network.dyn_peer[920] 	lookupTimeSig:mean 	1.12
scalar Network.dyn_peer[921] 	lookupHopsSig:mean 	11.111111111111
scalar Network.dyn_peer[921] 	lookupTimeSig:mean 	1.2
scalar Network.dyn_peer[922] 	lookupHopsSig:mean 	12.25
scalar Network.dyn_peer[922] 	lookupTimeSig:mean 	1.3
scalar Network.dyn_peer[923] 	lookupHopsSig:mean 	9
scalar Network.dyn_peer[923] 	lookupTimeSig:mean 	0.98333333333333
scalar Network.dyn_peer[924] 	lookupHopsSig:mean 	15.583333333333
scalar Network.dyn_peer[924] 	lookupTimeSig:mean 	1.65
scalar Network.dyn_peer[925] 	lookupHopsSig:mean 	11.9
scalar Network.dyn_peer[925] 	lookupTimeSig:mean 	1.28
scalar Network.dyn_peer[926] 	lookupHopsSig:mean 	25.714285714286
scalar Network.dyn_peer[926] 	lookupTimeSig:mean 	2.6571428571429
scalar Network.dyn_peer[927] 	lookupHopsSig:mean 	20.666666666667
scalar Network.dyn_peer[927] 	lookupTimeSig:mean 	2.15
scalar Network.dyn_peer[928] 	lookupHopsSig:mean 	17.5
scalar Network.dyn_peer[928] 	lookupTimeSig:mean 	1.8333333333333
scalar Network.dyn_peer[929] 	lookupHopsSig:mean 	13.5
scalar Network.dyn_peer[929] 	lookupTimeSig:mean 	1.44
scalar Network.dyn_peer[930] 	lookupHopsSig:mean 	14.333333333333
scalar Network.dyn_peer[930] 	lookupTimeSig:mean 	1.5166666666667
scalar Network.dyn_peer[931] 	lookupHopsSig:mean 	12.125
scalar Network.dyn_peer[931] 	lookupTimeSig:mean 	1.3
scalar Network.dyn_peer[932] 	lookupHopsSig:mean 	14.357142857143
scalar Network.dyn_peer[932] 	lookupTimeSig:mean 	1.5285714285714
scalar Network.dyn_peer[933] 	lookupHopsSig:mean 	18.285714285714
scalar Network.dyn_peer[933] 	lookupTimeSig:mean 	1.9142857142857
scalar Network.dyn_peer[934] 	lookupHopsSig:mean 	14.8
scalar Network.dyn_peer[934] 	lookupTimeSig:mean 	1.56
scalar Network.dyn_peer[935] 	lookupHopsSig:mean 	18.1
scalar Network.dyn_peer[935] 	lookupTimeSig:mean 	1.9
scalar Network.dyn_peer[936] 	lookupHopsSig:mean 	13.428571428571
scalar Network.dyn_peer[936] 	lookupTimeSig:mean 	1.4285714285714
scalar Network.dyn_peer[937] 	lookupHopsSig:mean 	17.571428571429
scalar Network.dyn_peer[937] 	lookupTimeSig:mean 	1.8428571428571
scalar Network.dyn_peer[938] 	lookupHopsSig:mean 	14.333333333333
scalar Network.dyn_peer[938] 	lookupTimeSig:mean 	1.5166666666667
scalar Network.dyn_peer[939] 	lookupHopsSig:mean 	21.2
scalar Network.dyn_peer[939] 	lookupTimeSig:mean 	2.2
scalar Network.dyn_peer[940] 	lookupHopsSig:mean 	14
scalar Network.dyn_peer[940] 	lookupTimeSig:mean 	1.4857142857143
scalar Network.dyn_peer[941] 	lookupHopsSig:mean 	18.272727272727
scalar Network.dyn_peer[941] 	lookupTimeSig:mean 	1.9181818181818
scalar Network.dyn_peer[942] 	lookupHopsSig:mean 	8.8571428571429
scalar Network.dyn_peer[942] 	lookupTimeSig:mean 	0.97857142857143
scalar Network.dyn_peer[943] 	lookupHopsSig:mean 	15.692307692308
scalar Network.dyn_peer[943] 	lookupTimeSig:mean 	1.6615384615385
scalar Network.dyn_peer[944] 	lookupHopsSig:mean 	14.111111111111
scalar Network.dyn_peer[944] 	lookupTimeSig:mean 	1.5
scalar Network.dyn_peer[945] 	lookupHopsSig:mean 	11.285714285714
scalar Network.dyn_peer[945] 	lookupTimeSig:mean 	1.2142857142857
scalar Network.dyn_peer[946] 	lookupHopsSig:mean 	15.333333333333
scalar Network.dyn_peer[946] 	lookupTimeSig:mean 	1.6222222222222
scalar Network.dyn_peer[947] 	lookupHopsSig:mean 	16.666666666667
scalar Network.dyn_peer[947] 	lookupTimeSig:mean 	1.75
scalar Network.dyn_peer[948] 	lookupHopsSig:mean 	17.8
scalar Network.dyn_peer[948] 	lookupTimeSig:mean 	1.86
scalar Network.dyn_peer[949] 	lookupHopsSig:mean 	17.875
scalar Network.dyn_peer[949] 	lookupTimeSig:mean 	1.875
scalar Network.dyn_peer[950] 	lookupHopsSig:mean 	19.666666666667
scalar Network.dyn_peer[950] 	lookupTimeSig:mean 	2.0555555555556
scalar Network.dyn_peer[951] 	lookupHopsSig:mean 	10.333333333333
scalar Network.dyn_peer[951] 	lookupTimeSig:mean 	1.1166666666667
scalar Network.dyn_peer[952] 	lookupHopsSig:mean 	11.375
scalar Network.dyn_peer[952] 	lookupTimeSig:mean 	1.225
scalar Network.dyn_peer[953] 	lookupHopsSig:mean 	19.428571428571
scalar Network.dyn_peer[953] 	lookupTimeSig:mean 	2.0285714285714
scalar Network.dyn_peer[954] 	lookupHopsSig:mean 	9.7142857142857
scalar Network.dyn_peer[954] 	lookupTimeSig:mean 	1.0571428571429
scalar Network.dyn_peer[955] 	lookupHopsSig:mean 	15.8
scalar Network.dyn_peer[955] 	lookupTimeSig:mean 	1.66
scalar Network.dyn_peer[956] 	lookupHopsSig:mean 	14.166666666667
scalar Network.dyn_peer[956] 	lookupTimeSig:mean 	1.5
scalar Network.dyn_peer[957] 	lookupHopsSig:mean 	11.333333333333
scalar Network.dyn_peer[957] 	lookupTimeSig:mean 	1.2166666666667
scalar Network.dyn_peer[958] 	lookupHopsSig:mean 	15.571428571429
scalar Network.dyn_peer[958] 	lookupTimeSig:mean 	1.6428571428571
scalar Network.dyn_peer[959] 	lookupHopsSig:mean 	14.076923076923
scalar Network.dyn_peer[959] 	lookupTimeSig:mean 	1.5
scalar Network.dyn_peer[960] 	lookupHopsSig:mean 	21.2
scalar Network.dyn_peer[960] 	lookupTimeSig:mean 	2.2
scalar Network.dyn_peer[961] 	lookupHopsSig:mean 	15.333333333333
scalar Network.dyn_peer[961] 	lookupTimeSig:mean 	1.6166666666667
scalar Network.dyn_peer[962] 	lookupHopsSig:mean 	17.272727272727
scalar Network.dyn_peer[962] 	lookupTimeSig:mean 	1.8181818181818
scalar Network.dyn_peer[963] 	lookupHopsSig:mean 	15.333333333333
scalar Network.dyn_peer[963] 	lookupTimeSig:mean 	1.6222222222222
scalar Network.dyn_peer[964] 	lookupHopsSig:mean 	9.5714285714286
scalar Network.dyn_peer[964] 	lookupTimeSig:mean 	1.0428571428571
scalar Network.dyn_peer[965] 	lookupHopsSig:mean 	16.090909090909
scalar Network.dyn_peer[965] 	lookupTimeSig:mean 	1.7
scalar Network.dyn_peer[966] 	lookupHopsSig:mean 	18.857142857143
scalar Network.dyn_peer[966] 	lookupTimeSig:mean 	1.9714285714286
scalar Network.dyn_peer[967] 	lookupHopsSig:mean 	13
scalar Network.dyn_peer[967] 	lookupTimeSig:mean 	1.3857142857143
scalar Network.dyn_peer[968] 	lookupHopsSig:mean 	17.636363636364
scalar Network.dyn_peer[968] 	lookupTimeSig:mean 	1.8545454545455
scalar Network.dyn_peer[969] 	lookupHopsSig:mean 	13.285714285714
scalar Network.dyn_peer[969] 	lookupTimeSig:mean 	1.4142857142857
scalar Network.dyn_peer[970] 	lookupHopsSig:mean 	10.909090909091
scalar Network.dyn_peer[970] 	lookupTimeSig:mean 	1.1818181818182
scalar Network.dyn_peer[971] 	lookupHopsSig:mean 	20
scalar Network.dyn_peer[971] 	lookupTimeSig:mean 	2.08
scalar Network.dyn_peer[972] 	lookupHopsSig:mean 	10
scalar Network.dyn_peer[972] 	lookupTimeSig:mean 	1.0833333333333
scalar Network.dyn_peer[973] 	lookupHopsSig:mean 	12.375
scalar Network.dyn_peer[973] 	lookupTimeSig:mean 	1.325
scalar Network.dyn_peer[974] 	lookupHopsSig:mean 	7.4285714285714
scalar Network.dyn_peer[974] 	lookupTimeSig:mean 	0.82857142857143
scalar Network.dyn_peer[975] 	lookupHopsSig:mean 	12.615384615385
scalar Network.dyn_peer[975] 	lookupTimeSig:mean 	1.3538461538462
scalar Network.dyn_peer[976] 	lookupHopsSig:mean 	13.666666666667
scalar Network.dyn_peer[976] 	lookupTimeSig:mean 	1.45
scalar Network.dyn_peer[977] 	lookupHopsSig:mean 	18
scalar Network.dyn_peer[977] 	lookupTimeSig:mean 	1.8857142857143
scalar Network.dyn_peer[978] 	lookupHopsSig:mean 	13.222222222222
scalar Network.dyn_peer[978] 	lookupTimeSig:mean 	1.4111111111111
scalar Network.dyn_peer[979] 	lookupHopsSig:mean 	17.181818181818
scalar Network.dyn_peer[979] 	lookupTimeSig:mean 	1.8090909090909
scalar Network.dyn_peer[980] 	lookupHopsSig:mean 	13.5
scalar Network.dyn_peer[980] 	lookupTimeSig:mean 	1.44
scalar Network.dyn_peer[981] 	lookupHopsSig:mean 	11
scalar Network.dyn_peer[981] 	lookupTimeSig:mean 	1.175
scalar Network.dyn_peer[982] 	lookupHopsSig:mean 	12.090909090909
scalar Network.dyn_peer[982] 	lookupTimeSig:mean 	1.3
scalar Network.dyn_peer[983] 	lookupHopsSig:mean 	15.625
scalar Network.dyn_peer[983] 	lookupTimeSig:mean 	1.65
scalar Network.dyn_peer[984] 	lookupHopsSig:mean 	11.285714285714
scalar Network.dyn_peer[984] 	lookupTimeSig:mean 	1.2142857142857
scalar Network.dyn_peer[985] 	lookupHopsSig:mean 	25
scalar Network.dyn_peer[985] 	lookupTimeSig:mean 	2.575
scalar Network.dyn_peer[986] 	lookupHopsSig:mean 	12.714285714286
scalar Network.dyn_peer[986] 	lookupTimeSig:mean 	1.3571428571429
scalar Network.dyn_peer[987] 	lookupHopsSig:mean 	14.727272727273
scalar Network.dyn_peer[987] 	lookupTimeSig:mean 	1.5636363636364
scalar Network.dyn_peer[988] 	lookupHopsSig:mean 	17
scalar Network.dyn_peer[988] 	lookupTimeSig:mean 	1.7875
scalar Network.dyn_peer[989] 	lookupHopsSig:mean 	9.5
scalar Network.dyn_peer[989] 	lookupTimeSig:mean 	1.0375
scalar Network.dyn_peer[990] 	lookupHopsSig:mean 	18.777777777778
scalar Network.dyn_peer[990] 	lookupTimeSig:mean 	1.9666666666667
scalar Network.dyn_peer[991] 	lookupHopsSig:mean 	17.428571428571
scalar Network.dyn_peer[991] 	lookupTimeSig:mean 	1.8285714285714
scalar Network.dyn_peer[992] 	lookupHopsSig:mean 	11.5
scalar Network.dyn_peer[992] 	lookupTimeSig:mean 	1.24
scalar Network.dyn_peer[993] 	lookupHopsSig:mean 	16.9
scalar Network.dyn_peer[993] 	lookupTimeSig:mean 	1.78
scalar Network.dyn_peer[994] 	lookupHopsSig:mean 	14.777777777778
scalar Network.dyn_peer[994] 	lookupTimeSig:mean 	1.5666666666667
scalar Network.dyn_peer[995] 	lookupHopsSig:mean 	13.9
scalar Network.dyn_peer[995] 	lookupTimeSig:mean 	1.48
scalar Network.dyn_peer[996] 	lookupHopsSig:mean 	14.4
scalar Network.dyn_peer[996] 	lookupTimeSig:mean 	1.5333333333333
scalar Network.dyn_peer[997] 	lookupHopsSig:mean 	13.333333333333
scalar Network.dyn_peer[997] 	lookupTimeSig:mean 	1.4166666666667
scalar Network.dyn_peer[998] 	lookupHopsSig:mean 	12.8
scalar Network.dyn_peer[998] 	lookupTimeSig:mean 	1.37
scalar Network.dyn_peer[999] 	lookupHopsSig:mean 	13.571428571429
scalar Network.dyn_peer[999] 	lookupTimeSig:mean 	1.4428571428571
