version 2
run Join-60-20130429-12:51:27-17679
attr configname Join
attr datetime 20130429-12:51:27
attr experiment "\"Join\""
attr inifile omnetpp.ini
attr iterationvars $0=2048
attr iterationvars2 "$0=2048, $repetition=0"
attr measurement $0=2048
attr network Network
attr processid 17679
attr repetition 0
attr replication #0
attr resultdir results
attr runnumber 60
attr seedset 60

scalar Network.dyn_peer[0] 	lookupHopsSig:last 	26
scalar Network.dyn_peer[0] 	lookupHopsSig:max 	82
scalar Network.dyn_peer[0] 	lookupHopsSig:min 	0
scalar Network.dyn_peer[0] 	lookupHopsSig:mean 	20.24511954376
scalar Network.dyn_peer[0] 	lookupHopsSig:timeavg 	20.664018551564
scalar Network.dyn_peer[0] 	LookupFailuresSig:max 	-nan
scalar Network.dyn_peer[0] 	LookupFailuresSig:timeavg 	-nan
