version 2
run Join-34-20130429-12:50:10-17679
attr configname Join
attr datetime 20130429-12:50:10
attr experiment "\"Join\""
attr inifile omnetpp.ini
attr iterationvars $0=256
attr iterationvars2 "$0=256, $repetition=4"
attr measurement $0=256
attr network Network
attr processid 17679
attr repetition 4
attr replication #4
attr resultdir results
attr runnumber 34
attr seedset 34

scalar Network.dyn_peer[0] 	lookupHopsSig:last 	7
scalar Network.dyn_peer[0] 	lookupHopsSig:max 	25
scalar Network.dyn_peer[0] 	lookupHopsSig:min 	0
scalar Network.dyn_peer[0] 	lookupHopsSig:mean 	6.5608514576585
scalar Network.dyn_peer[0] 	lookupHopsSig:timeavg 	6.7462127639387
scalar Network.dyn_peer[0] 	LookupFailuresSig:max 	-nan
scalar Network.dyn_peer[0] 	LookupFailuresSig:timeavg 	-nan
