version 2
run Join-96-20130429-13:09:26-17679
attr configname Join
attr datetime 20130429-13:09:26
attr experiment "\"Join\""
attr inifile omnetpp.ini
attr iterationvars $0=16384
attr iterationvars2 "$0=16384, $repetition=6"
attr measurement $0=16384
attr network Network
attr processid 17679
attr repetition 6
attr replication #6
attr resultdir results
attr runnumber 96
attr seedset 96

scalar Network.dyn_peer[0] 	lookupHopsSig:last 	86
scalar Network.dyn_peer[0] 	lookupHopsSig:max 	258
scalar Network.dyn_peer[0] 	lookupHopsSig:min 	1
scalar Network.dyn_peer[0] 	lookupHopsSig:mean 	53.594536689877
scalar Network.dyn_peer[0] 	lookupHopsSig:timeavg 	54.652867574508
scalar Network.dyn_peer[0] 	LookupFailuresSig:max 	-nan
scalar Network.dyn_peer[0] 	LookupFailuresSig:timeavg 	-nan
