version 2
run Join-86-20130429-12:57:13-17679
attr configname Join
attr datetime 20130429-12:57:13
attr experiment "\"Join\""
attr inifile omnetpp.ini
attr iterationvars $0=8192
attr iterationvars2 "$0=8192, $repetition=6"
attr measurement $0=8192
attr network Network
attr processid 17679
attr repetition 6
attr replication #6
attr resultdir results
attr runnumber 86
attr seedset 86

scalar Network.dyn_peer[0] 	lookupHopsSig:last 	54
scalar Network.dyn_peer[0] 	lookupHopsSig:max 	156
scalar Network.dyn_peer[0] 	lookupHopsSig:min 	1
scalar Network.dyn_peer[0] 	lookupHopsSig:mean 	37.989161619382
scalar Network.dyn_peer[0] 	lookupHopsSig:timeavg 	38.806685996444
scalar Network.dyn_peer[0] 	LookupFailuresSig:max 	-nan
scalar Network.dyn_peer[0] 	LookupFailuresSig:timeavg 	-nan
