version 2
run Join-68-20130429-12:52:13-17679
attr configname Join
attr datetime 20130429-12:52:13
attr experiment "\"Join\""
attr inifile omnetpp.ini
attr iterationvars $0=2048
attr iterationvars2 "$0=2048, $repetition=8"
attr measurement $0=2048
attr network Network
attr processid 17679
attr repetition 8
attr replication #8
attr resultdir results
attr runnumber 68
attr seedset 68

scalar Network.dyn_peer[0] 	lookupHopsSig:last 	30
scalar Network.dyn_peer[0] 	lookupHopsSig:max 	92
scalar Network.dyn_peer[0] 	lookupHopsSig:min 	1
scalar Network.dyn_peer[0] 	lookupHopsSig:mean 	19.365743295442
scalar Network.dyn_peer[0] 	lookupHopsSig:timeavg 	19.929443887132
scalar Network.dyn_peer[0] 	LookupFailuresSig:max 	-nan
scalar Network.dyn_peer[0] 	LookupFailuresSig:timeavg 	-nan
