version 2
run Join-17-20130429-12:49:38-17679
attr configname Join
attr datetime 20130429-12:49:38
attr experiment "\"Join\""
attr inifile omnetpp.ini
attr iterationvars $0=64
attr iterationvars2 "$0=64, $repetition=7"
attr measurement $0=64
attr network Network
attr processid 17679
attr repetition 7
attr replication #7
attr resultdir results
attr runnumber 17
attr seedset 17

scalar Network.dyn_peer[0] 	lookupHopsSig:last 	4
scalar Network.dyn_peer[0] 	lookupHopsSig:max 	13
scalar Network.dyn_peer[0] 	lookupHopsSig:min 	0
scalar Network.dyn_peer[0] 	lookupHopsSig:mean 	3.5796987557302
scalar Network.dyn_peer[0] 	lookupHopsSig:timeavg 	3.6342580383
scalar Network.dyn_peer[0] 	LookupFailuresSig:max 	-nan
scalar Network.dyn_peer[0] 	LookupFailuresSig:timeavg 	-nan
