version 2
run Join-10-20130429-12:49:27-17679
attr configname Join
attr datetime 20130429-12:49:27
attr experiment "\"Join\""
attr inifile omnetpp.ini
attr iterationvars $0=64
attr iterationvars2 "$0=64, $repetition=0"
attr measurement $0=64
attr network Network
attr processid 17679
attr repetition 0
attr replication #0
attr resultdir results
attr runnumber 10
attr seedset 10

scalar Network.dyn_peer[0] 	lookupHopsSig:last 	4
scalar Network.dyn_peer[0] 	lookupHopsSig:max 	12
scalar Network.dyn_peer[0] 	lookupHopsSig:min 	0
scalar Network.dyn_peer[0] 	lookupHopsSig:mean 	3.3998628257888
scalar Network.dyn_peer[0] 	lookupHopsSig:timeavg 	3.3640686794702
scalar Network.dyn_peer[0] 	LookupFailuresSig:max 	-nan
scalar Network.dyn_peer[0] 	LookupFailuresSig:timeavg 	-nan
