version 2
run Join-24-20130429-12:49:50-17679
attr configname Join
attr datetime 20130429-12:49:50
attr experiment "\"Join\""
attr inifile omnetpp.ini
attr iterationvars $0=128
attr iterationvars2 "$0=128, $repetition=4"
attr measurement $0=128
attr network Network
attr processid 17679
attr repetition 4
attr replication #4
attr resultdir results
attr runnumber 24
attr seedset 24

scalar Network.dyn_peer[0] 	lookupHopsSig:last 	1
scalar Network.dyn_peer[0] 	lookupHopsSig:max 	16
scalar Network.dyn_peer[0] 	lookupHopsSig:min 	0
scalar Network.dyn_peer[0] 	lookupHopsSig:mean 	4.5812904012684
scalar Network.dyn_peer[0] 	lookupHopsSig:timeavg 	4.5857669541064
scalar Network.dyn_peer[0] 	LookupFailuresSig:max 	-nan
scalar Network.dyn_peer[0] 	LookupFailuresSig:timeavg 	-nan
