version 2
run Join-80-20130429-12:54:17-17679
attr configname Join
attr datetime 20130429-12:54:17
attr experiment "\"Join\""
attr inifile omnetpp.ini
attr iterationvars $0=8192
attr iterationvars2 "$0=8192, $repetition=0"
attr measurement $0=8192
attr network Network
attr processid 17679
attr repetition 0
attr replication #0
attr resultdir results
attr runnumber 80
attr seedset 80

scalar Network.dyn_peer[0] 	lookupHopsSig:last 	69
scalar Network.dyn_peer[0] 	lookupHopsSig:max 	149
scalar Network.dyn_peer[0] 	lookupHopsSig:min 	0
scalar Network.dyn_peer[0] 	lookupHopsSig:mean 	37.263685839291
scalar Network.dyn_peer[0] 	lookupHopsSig:timeavg 	38.351270250018
scalar Network.dyn_peer[0] 	LookupFailuresSig:max 	-nan
scalar Network.dyn_peer[0] 	LookupFailuresSig:timeavg 	-nan
