version 2
run Join-12-20130429-12:49:30-17679
attr configname Join
attr datetime 20130429-12:49:30
attr experiment "\"Join\""
attr inifile omnetpp.ini
attr iterationvars $0=64
attr iterationvars2 "$0=64, $repetition=2"
attr measurement $0=64
attr network Network
attr processid 17679
attr repetition 2
attr replication #2
attr resultdir results
attr runnumber 12
attr seedset 12

scalar Network.dyn_peer[0] 	lookupHopsSig:last 	1
scalar Network.dyn_peer[0] 	lookupHopsSig:max 	9
scalar Network.dyn_peer[0] 	lookupHopsSig:min 	0
scalar Network.dyn_peer[0] 	lookupHopsSig:mean 	3.4261766602192
scalar Network.dyn_peer[0] 	lookupHopsSig:timeavg 	3.3130991170598
scalar Network.dyn_peer[0] 	LookupFailuresSig:max 	-nan
scalar Network.dyn_peer[0] 	LookupFailuresSig:timeavg 	-nan
