version 2
run Join-62-20130429-12:51:38-17679
attr configname Join
attr datetime 20130429-12:51:38
attr experiment "\"Join\""
attr inifile omnetpp.ini
attr iterationvars $0=2048
attr iterationvars2 "$0=2048, $repetition=2"
attr measurement $0=2048
attr network Network
attr processid 17679
attr repetition 2
attr replication #2
attr resultdir results
attr runnumber 62
attr seedset 62

scalar Network.dyn_peer[0] 	lookupHopsSig:last 	31
scalar Network.dyn_peer[0] 	lookupHopsSig:max 	76
scalar Network.dyn_peer[0] 	lookupHopsSig:min 	0
scalar Network.dyn_peer[0] 	lookupHopsSig:mean 	18.79011274935
scalar Network.dyn_peer[0] 	lookupHopsSig:timeavg 	19.299433336025
scalar Network.dyn_peer[0] 	LookupFailuresSig:max 	-nan
scalar Network.dyn_peer[0] 	LookupFailuresSig:timeavg 	-nan
