version 2
run Join-99-20130429-14:17:20-17679
attr configname Join
attr datetime 20130429-14:17:20
attr experiment "\"Join\""
attr inifile omnetpp.ini
attr iterationvars $0=16384
attr iterationvars2 "$0=16384, $repetition=9"
attr measurement $0=16384
attr network Network
attr processid 17679
attr repetition 9
attr replication #9
attr resultdir results
attr runnumber 99
attr seedset 99

scalar Network.dyn_peer[0] 	lookupHopsSig:last 	100
scalar Network.dyn_peer[0] 	lookupHopsSig:max 	271
scalar Network.dyn_peer[0] 	lookupHopsSig:min 	1
scalar Network.dyn_peer[0] 	lookupHopsSig:mean 	56.459740811557
scalar Network.dyn_peer[0] 	lookupHopsSig:timeavg 	57.969971732835
scalar Network.dyn_peer[0] 	LookupFailuresSig:max 	-nan
scalar Network.dyn_peer[0] 	LookupFailuresSig:timeavg 	-nan
