version 2
run Join-92-20130429-13:02:32-17679
attr configname Join
attr datetime 20130429-13:02:32
attr experiment "\"Join\""
attr inifile omnetpp.ini
attr iterationvars $0=16384
attr iterationvars2 "$0=16384, $repetition=2"
attr measurement $0=16384
attr network Network
attr processid 17679
attr repetition 2
attr replication #2
attr resultdir results
attr runnumber 92
attr seedset 92

scalar Network.dyn_peer[0] 	lookupHopsSig:last 	37
scalar Network.dyn_peer[0] 	lookupHopsSig:max 	258
scalar Network.dyn_peer[0] 	lookupHopsSig:min 	0
scalar Network.dyn_peer[0] 	lookupHopsSig:mean 	54.326673751328
scalar Network.dyn_peer[0] 	lookupHopsSig:timeavg 	55.13831227683
scalar Network.dyn_peer[0] 	LookupFailuresSig:max 	-nan
scalar Network.dyn_peer[0] 	LookupFailuresSig:timeavg 	-nan
