version 2
run Join-52-20130429-12:50:58-17679
attr configname Join
attr datetime 20130429-12:50:58
attr experiment "\"Join\""
attr inifile omnetpp.ini
attr iterationvars $0=1024
attr iterationvars2 "$0=1024, $repetition=2"
attr measurement $0=1024
attr network Network
attr processid 17679
attr repetition 2
attr replication #2
attr resultdir results
attr runnumber 52
attr seedset 52

scalar Network.dyn_peer[0] 	lookupHopsSig:last 	20
scalar Network.dyn_peer[0] 	lookupHopsSig:max 	55
scalar Network.dyn_peer[0] 	lookupHopsSig:min 	0
scalar Network.dyn_peer[0] 	lookupHopsSig:mean 	14.918496340652
scalar Network.dyn_peer[0] 	lookupHopsSig:timeavg 	15.458702356998
scalar Network.dyn_peer[0] 	LookupFailuresSig:max 	-nan
scalar Network.dyn_peer[0] 	LookupFailuresSig:timeavg 	-nan
