version 2
run Join-97-20130429-13:11:18-17679
attr configname Join
attr datetime 20130429-13:11:18
attr experiment "\"Join\""
attr inifile omnetpp.ini
attr iterationvars $0=16384
attr iterationvars2 "$0=16384, $repetition=7"
attr measurement $0=16384
attr network Network
attr processid 17679
attr repetition 7
attr replication #7
attr resultdir results
attr runnumber 97
attr seedset 97

scalar Network.dyn_peer[0] 	lookupHopsSig:last 	35
scalar Network.dyn_peer[0] 	lookupHopsSig:max 	252
scalar Network.dyn_peer[0] 	lookupHopsSig:min 	1
scalar Network.dyn_peer[0] 	lookupHopsSig:mean 	55.465191233348
scalar Network.dyn_peer[0] 	lookupHopsSig:timeavg 	57.297430422105
scalar Network.dyn_peer[0] 	LookupFailuresSig:max 	-nan
scalar Network.dyn_peer[0] 	LookupFailuresSig:timeavg 	-nan
