version 2
run Join-70-20130429-12:52:25-17679
attr configname Join
attr datetime 20130429-12:52:25
attr experiment "\"Join\""
attr inifile omnetpp.ini
attr iterationvars $0=4096
attr iterationvars2 "$0=4096, $repetition=0"
attr measurement $0=4096
attr network Network
attr processid 17679
attr repetition 0
attr replication #0
attr resultdir results
attr runnumber 70
attr seedset 70

scalar Network.dyn_peer[0] 	lookupHopsSig:last 	22
scalar Network.dyn_peer[0] 	lookupHopsSig:max 	108
scalar Network.dyn_peer[0] 	lookupHopsSig:min 	1
scalar Network.dyn_peer[0] 	lookupHopsSig:mean 	29.273992828517
scalar Network.dyn_peer[0] 	lookupHopsSig:timeavg 	30.611317299502
scalar Network.dyn_peer[0] 	LookupFailuresSig:max 	-nan
scalar Network.dyn_peer[0] 	LookupFailuresSig:timeavg 	-nan
