version 2
run Join-15-20130520-16:32:12-32715
attr configname Join
attr datetime 20130520-16:32:12
attr experiment "\"Join\""
attr inifile omnetpp.ini
attr iterationvars $0=64
attr iterationvars2 "$0=64, $repetition=5"
attr measurement $0=64
attr network Network
attr processid 32715
attr repetition 5
attr replication #5
attr resultdir results
attr runnumber 15
attr seedset 15

scalar Network.dyn_peer[0] 	lookupHopsSig:last 	2
scalar Network.dyn_peer[0] 	lookupHopsSig:max 	10
scalar Network.dyn_peer[0] 	lookupHopsSig:min 	1
scalar Network.dyn_peer[0] 	lookupHopsSig:mean 	3.5185659411012
scalar Network.dyn_peer[0] 	lookupHopsSig:timeavg 	3.4971010786636
scalar Network.dyn_peer[0] 	LookupFailuresSig:max 	-nan
scalar Network.dyn_peer[0] 	LookupFailuresSig:timeavg 	-nan
