version 2
run Join-12-20130520-16:32:11-32715
attr configname Join
attr datetime 20130520-16:32:11
attr experiment "\"Join\""
attr inifile omnetpp.ini
attr iterationvars $0=64
attr iterationvars2 "$0=64, $repetition=2"
attr measurement $0=64
attr network Network
attr processid 32715
attr repetition 2
attr replication #2
attr resultdir results
attr runnumber 12
attr seedset 12

scalar Network.dyn_peer[0] 	lookupHopsSig:last 	3
scalar Network.dyn_peer[0] 	lookupHopsSig:max 	10
scalar Network.dyn_peer[0] 	lookupHopsSig:min 	0
scalar Network.dyn_peer[0] 	lookupHopsSig:mean 	3.4156327543424
scalar Network.dyn_peer[0] 	lookupHopsSig:timeavg 	3.4663887261426
scalar Network.dyn_peer[0] 	LookupFailuresSig:max 	-nan
scalar Network.dyn_peer[0] 	LookupFailuresSig:timeavg 	-nan
