version 2
run Join-90-20130520-16:37:20-32715
attr configname Join
attr datetime 20130520-16:37:20
attr experiment "\"Join\""
attr inifile omnetpp.ini
attr iterationvars $0=16384
attr iterationvars2 "$0=16384, $repetition=0"
attr measurement $0=16384
attr network Network
attr processid 32715
attr repetition 0
attr replication #0
attr resultdir results
attr runnumber 90
attr seedset 90

scalar Network.dyn_peer[0] 	lookupHopsSig:last 	60
scalar Network.dyn_peer[0] 	lookupHopsSig:max 	206
scalar Network.dyn_peer[0] 	lookupHopsSig:min 	2
scalar Network.dyn_peer[0] 	lookupHopsSig:mean 	58.131551901336
scalar Network.dyn_peer[0] 	lookupHopsSig:timeavg 	61.049341393322
scalar Network.dyn_peer[0] 	LookupFailuresSig:max 	-nan
scalar Network.dyn_peer[0] 	LookupFailuresSig:timeavg 	-nan
