version 2
run Join-11-20130520-16:32:11-32715
attr configname Join
attr datetime 20130520-16:32:11
attr experiment "\"Join\""
attr inifile omnetpp.ini
attr iterationvars $0=64
attr iterationvars2 "$0=64, $repetition=1"
attr measurement $0=64
attr network Network
attr processid 32715
attr repetition 1
attr replication #1
attr resultdir results
attr runnumber 11
attr seedset 11

scalar Network.dyn_peer[0] 	lookupHopsSig:last 	3
scalar Network.dyn_peer[0] 	lookupHopsSig:max 	11
scalar Network.dyn_peer[0] 	lookupHopsSig:min 	0
scalar Network.dyn_peer[0] 	lookupHopsSig:mean 	3.486646884273
scalar Network.dyn_peer[0] 	lookupHopsSig:timeavg 	3.5551334518134
scalar Network.dyn_peer[0] 	LookupFailuresSig:max 	-nan
scalar Network.dyn_peer[0] 	LookupFailuresSig:timeavg 	-nan
