version 2
run Join-94-20130520-16:42:40-32715
attr configname Join
attr datetime 20130520-16:42:40
attr experiment "\"Join\""
attr inifile omnetpp.ini
attr iterationvars $0=16384
attr iterationvars2 "$0=16384, $repetition=4"
attr measurement $0=16384
attr network Network
attr processid 32715
attr repetition 4
attr replication #4
attr resultdir results
attr runnumber 94
attr seedset 94

scalar Network.dyn_peer[0] 	lookupHopsSig:last 	56
scalar Network.dyn_peer[0] 	lookupHopsSig:max 	183
scalar Network.dyn_peer[0] 	lookupHopsSig:min 	3
scalar Network.dyn_peer[0] 	lookupHopsSig:mean 	51.801310043668
scalar Network.dyn_peer[0] 	lookupHopsSig:timeavg 	53.192298361374
scalar Network.dyn_peer[0] 	LookupFailuresSig:max 	-nan
scalar Network.dyn_peer[0] 	LookupFailuresSig:timeavg 	-nan
