version 2
run Join-76-20130520-16:33:36-32715
attr configname Join
attr datetime 20130520-16:33:36
attr experiment "\"Join\""
attr inifile omnetpp.ini
attr iterationvars $0=4096
attr iterationvars2 "$0=4096, $repetition=6"
attr measurement $0=4096
attr network Network
attr processid 32715
attr repetition 6
attr replication #6
attr resultdir results
attr runnumber 76
attr seedset 76

scalar Network.dyn_peer[0] 	lookupHopsSig:last 	50
scalar Network.dyn_peer[0] 	lookupHopsSig:max 	96
scalar Network.dyn_peer[0] 	lookupHopsSig:min 	1
scalar Network.dyn_peer[0] 	lookupHopsSig:mean 	29.647639956092
scalar Network.dyn_peer[0] 	lookupHopsSig:timeavg 	30.118292027577
scalar Network.dyn_peer[0] 	LookupFailuresSig:max 	-nan
scalar Network.dyn_peer[0] 	LookupFailuresSig:timeavg 	-nan
