version 2
run Join-98-20130520-16:48:00-32715
attr configname Join
attr datetime 20130520-16:48:00
attr experiment "\"Join\""
attr inifile omnetpp.ini
attr iterationvars $0=16384
attr iterationvars2 "$0=16384, $repetition=8"
attr measurement $0=16384
attr network Network
attr processid 32715
attr repetition 8
attr replication #8
attr resultdir results
attr runnumber 98
attr seedset 98

scalar Network.dyn_peer[0] 	lookupHopsSig:last 	44
scalar Network.dyn_peer[0] 	lookupHopsSig:max 	230
scalar Network.dyn_peer[0] 	lookupHopsSig:min 	1
scalar Network.dyn_peer[0] 	lookupHopsSig:mean 	52.159788359788
scalar Network.dyn_peer[0] 	lookupHopsSig:timeavg 	53.415271733339
scalar Network.dyn_peer[0] 	LookupFailuresSig:max 	-nan
scalar Network.dyn_peer[0] 	LookupFailuresSig:timeavg 	-nan
