version 2
run Join-9-20130520-16:32:11-32715
attr configname Join
attr datetime 20130520-16:32:11
attr experiment "\"Join\""
attr inifile omnetpp.ini
attr iterationvars $0=32
attr iterationvars2 "$0=32, $repetition=9"
attr measurement $0=32
attr network Network
attr processid 32715
attr repetition 9
attr replication #9
attr resultdir results
attr runnumber 9
attr seedset 9

scalar Network.dyn_peer[0] 	lookupHopsSig:last 	2
scalar Network.dyn_peer[0] 	lookupHopsSig:max 	7
scalar Network.dyn_peer[0] 	lookupHopsSig:min 	1
scalar Network.dyn_peer[0] 	lookupHopsSig:mean 	2.4354395604396
scalar Network.dyn_peer[0] 	lookupHopsSig:timeavg 	2.4449945054266
scalar Network.dyn_peer[0] 	LookupFailuresSig:max 	-nan
scalar Network.dyn_peer[0] 	LookupFailuresSig:timeavg 	-nan
