version 2
run Join-88-20130520-16:36:39-32715
attr configname Join
attr datetime 20130520-16:36:39
attr experiment "\"Join\""
attr inifile omnetpp.ini
attr iterationvars $0=8192
attr iterationvars2 "$0=8192, $repetition=8"
attr measurement $0=8192
attr network Network
attr processid 32715
attr repetition 8
attr replication #8
attr resultdir results
attr runnumber 88
attr seedset 88

scalar Network.dyn_peer[0] 	lookupHopsSig:last 	23
scalar Network.dyn_peer[0] 	lookupHopsSig:max 	158
scalar Network.dyn_peer[0] 	lookupHopsSig:min 	3
scalar Network.dyn_peer[0] 	lookupHopsSig:mean 	42.67614213198
scalar Network.dyn_peer[0] 	lookupHopsSig:timeavg 	43.629855774363
scalar Network.dyn_peer[0] 	LookupFailuresSig:max 	-nan
scalar Network.dyn_peer[0] 	LookupFailuresSig:timeavg 	-nan
