version 2
run Join-82-20130520-16:34:38-32715
attr configname Join
attr datetime 20130520-16:34:38
attr experiment "\"Join\""
attr inifile omnetpp.ini
attr iterationvars $0=8192
attr iterationvars2 "$0=8192, $repetition=2"
attr measurement $0=8192
attr network Network
attr processid 32715
attr repetition 2
attr replication #2
attr resultdir results
attr runnumber 82
attr seedset 82

scalar Network.dyn_peer[0] 	lookupHopsSig:last 	36
scalar Network.dyn_peer[0] 	lookupHopsSig:max 	159
scalar Network.dyn_peer[0] 	lookupHopsSig:min 	2
scalar Network.dyn_peer[0] 	lookupHopsSig:mean 	40.353260869565
scalar Network.dyn_peer[0] 	lookupHopsSig:timeavg 	41.095682812123
scalar Network.dyn_peer[0] 	LookupFailuresSig:max 	-nan
scalar Network.dyn_peer[0] 	LookupFailuresSig:timeavg 	-nan
