version 2
run Join-27-20130520-16:32:15-32715
attr configname Join
attr datetime 20130520-16:32:15
attr experiment "\"Join\""
attr inifile omnetpp.ini
attr iterationvars $0=128
attr iterationvars2 "$0=128, $repetition=7"
attr measurement $0=128
attr network Network
attr processid 32715
attr repetition 7
attr replication #7
attr resultdir results
attr runnumber 27
attr seedset 27

scalar Network.dyn_peer[0] 	lookupHopsSig:last 	4
scalar Network.dyn_peer[0] 	lookupHopsSig:max 	16
scalar Network.dyn_peer[0] 	lookupHopsSig:min 	1
scalar Network.dyn_peer[0] 	lookupHopsSig:mean 	4.9591315453384
scalar Network.dyn_peer[0] 	lookupHopsSig:timeavg 	4.8233471978675
scalar Network.dyn_peer[0] 	LookupFailuresSig:max 	-nan
scalar Network.dyn_peer[0] 	LookupFailuresSig:timeavg 	-nan
