version 2
run Join-37-20130520-16:32:18-32715
attr configname Join
attr datetime 20130520-16:32:18
attr experiment "\"Join\""
attr inifile omnetpp.ini
attr iterationvars $0=256
attr iterationvars2 "$0=256, $repetition=7"
attr measurement $0=256
attr network Network
attr processid 32715
attr repetition 7
attr replication #7
attr resultdir results
attr runnumber 37
attr seedset 37

scalar Network.dyn_peer[0] 	lookupHopsSig:last 	3
scalar Network.dyn_peer[0] 	lookupHopsSig:max 	20
scalar Network.dyn_peer[0] 	lookupHopsSig:min 	1
scalar Network.dyn_peer[0] 	lookupHopsSig:mean 	6.9284876905041
scalar Network.dyn_peer[0] 	lookupHopsSig:timeavg 	7.1587998379969
scalar Network.dyn_peer[0] 	LookupFailuresSig:max 	-nan
scalar Network.dyn_peer[0] 	LookupFailuresSig:timeavg 	-nan
