version 2
run Join-28-20130520-16:32:15-32715
attr configname Join
attr datetime 20130520-16:32:15
attr experiment "\"Join\""
attr inifile omnetpp.ini
attr iterationvars $0=128
attr iterationvars2 "$0=128, $repetition=8"
attr measurement $0=128
attr network Network
attr processid 32715
attr repetition 8
attr replication #8
attr resultdir results
attr runnumber 28
attr seedset 28

scalar Network.dyn_peer[0] 	lookupHopsSig:last 	6
scalar Network.dyn_peer[0] 	lookupHopsSig:max 	15
scalar Network.dyn_peer[0] 	lookupHopsSig:min 	1
scalar Network.dyn_peer[0] 	lookupHopsSig:mean 	4.8914141414141
scalar Network.dyn_peer[0] 	lookupHopsSig:timeavg 	4.7613252323745
scalar Network.dyn_peer[0] 	LookupFailuresSig:max 	-nan
scalar Network.dyn_peer[0] 	LookupFailuresSig:timeavg 	-nan
