version 2
run Join-23-20130520-16:32:14-32715
attr configname Join
attr datetime 20130520-16:32:14
attr experiment "\"Join\""
attr inifile omnetpp.ini
attr iterationvars $0=128
attr iterationvars2 "$0=128, $repetition=3"
attr measurement $0=128
attr network Network
attr processid 32715
attr repetition 3
attr replication #3
attr resultdir results
attr runnumber 23
attr seedset 23

scalar Network.dyn_peer[0] 	lookupHopsSig:last 	4
scalar Network.dyn_peer[0] 	lookupHopsSig:max 	17
scalar Network.dyn_peer[0] 	lookupHopsSig:min 	1
scalar Network.dyn_peer[0] 	lookupHopsSig:mean 	4.8447432762836
scalar Network.dyn_peer[0] 	lookupHopsSig:timeavg 	4.8120258105211
scalar Network.dyn_peer[0] 	LookupFailuresSig:max 	-nan
scalar Network.dyn_peer[0] 	LookupFailuresSig:timeavg 	-nan
