version 2
run Join-80-20130520-16:33:59-32715
attr configname Join
attr datetime 20130520-16:33:59
attr experiment "\"Join\""
attr inifile omnetpp.ini
attr iterationvars $0=8192
attr iterationvars2 "$0=8192, $repetition=0"
attr measurement $0=8192
attr network Network
attr processid 32715
attr repetition 0
attr replication #0
attr resultdir results
attr runnumber 80
attr seedset 80

scalar Network.dyn_peer[0] 	lookupHopsSig:last 	30
scalar Network.dyn_peer[0] 	lookupHopsSig:max 	168
scalar Network.dyn_peer[0] 	lookupHopsSig:min 	2
scalar Network.dyn_peer[0] 	lookupHopsSig:mean 	39.802375809935
scalar Network.dyn_peer[0] 	lookupHopsSig:timeavg 	40.834531962474
scalar Network.dyn_peer[0] 	LookupFailuresSig:max 	-nan
scalar Network.dyn_peer[0] 	LookupFailuresSig:timeavg 	-nan
