version 2
run Join-34-20130520-16:32:17-32715
attr configname Join
attr datetime 20130520-16:32:17
attr experiment "\"Join\""
attr inifile omnetpp.ini
attr iterationvars $0=256
attr iterationvars2 "$0=256, $repetition=4"
attr measurement $0=256
attr network Network
attr processid 32715
attr repetition 4
attr replication #4
attr resultdir results
attr runnumber 34
attr seedset 34

scalar Network.dyn_peer[0] 	lookupHopsSig:last 	13
scalar Network.dyn_peer[0] 	lookupHopsSig:max 	25
scalar Network.dyn_peer[0] 	lookupHopsSig:min 	0
scalar Network.dyn_peer[0] 	lookupHopsSig:mean 	6.5836216839677
scalar Network.dyn_peer[0] 	lookupHopsSig:timeavg 	6.4554797513715
scalar Network.dyn_peer[0] 	LookupFailuresSig:max 	-nan
scalar Network.dyn_peer[0] 	LookupFailuresSig:timeavg 	-nan
