version 2
run Join-78-20130520-16:33:47-32715
attr configname Join
attr datetime 20130520-16:33:47
attr experiment "\"Join\""
attr inifile omnetpp.ini
attr iterationvars $0=4096
attr iterationvars2 "$0=4096, $repetition=8"
attr measurement $0=4096
attr network Network
attr processid 32715
attr repetition 8
attr replication #8
attr resultdir results
attr runnumber 78
attr seedset 78

scalar Network.dyn_peer[0] 	lookupHopsSig:last 	27
scalar Network.dyn_peer[0] 	lookupHopsSig:max 	112
scalar Network.dyn_peer[0] 	lookupHopsSig:min 	0
scalar Network.dyn_peer[0] 	lookupHopsSig:mean 	28.482532751092
scalar Network.dyn_peer[0] 	lookupHopsSig:timeavg 	29.209638142766
scalar Network.dyn_peer[0] 	LookupFailuresSig:max 	-nan
scalar Network.dyn_peer[0] 	LookupFailuresSig:timeavg 	-nan
