version 2
run Join-40-20130520-16:32:19-32715
attr configname Join
attr datetime 20130520-16:32:19
attr experiment "\"Join\""
attr inifile omnetpp.ini
attr iterationvars $0=512
attr iterationvars2 "$0=512, $repetition=0"
attr measurement $0=512
attr network Network
attr processid 32715
attr repetition 0
attr replication #0
attr resultdir results
attr runnumber 40
attr seedset 40

scalar Network.dyn_peer[0] 	lookupHopsSig:last 	3
scalar Network.dyn_peer[0] 	lookupHopsSig:max 	31
scalar Network.dyn_peer[0] 	lookupHopsSig:min 	1
scalar Network.dyn_peer[0] 	lookupHopsSig:mean 	11.036643026005
scalar Network.dyn_peer[0] 	lookupHopsSig:timeavg 	10.94471822403
scalar Network.dyn_peer[0] 	LookupFailuresSig:max 	-nan
scalar Network.dyn_peer[0] 	LookupFailuresSig:timeavg 	-nan
