version 2
run Join-22-20130520-16:32:14-32715
attr configname Join
attr datetime 20130520-16:32:14
attr experiment "\"Join\""
attr inifile omnetpp.ini
attr iterationvars $0=128
attr iterationvars2 "$0=128, $repetition=2"
attr measurement $0=128
attr network Network
attr processid 32715
attr repetition 2
attr replication #2
attr resultdir results
attr runnumber 22
attr seedset 22

scalar Network.dyn_peer[0] 	lookupHopsSig:last 	3
scalar Network.dyn_peer[0] 	lookupHopsSig:max 	14
scalar Network.dyn_peer[0] 	lookupHopsSig:min 	0
scalar Network.dyn_peer[0] 	lookupHopsSig:mean 	4.8880778588808
scalar Network.dyn_peer[0] 	lookupHopsSig:timeavg 	4.8562057133911
scalar Network.dyn_peer[0] 	LookupFailuresSig:max 	-nan
scalar Network.dyn_peer[0] 	LookupFailuresSig:timeavg 	-nan
